@<TRIPOS>MOLECULE
*****
 34 37 0 0 0
SMALL
GASTEIGER

@<TRIPOS>ATOM
      1 N         140.8633  139.4175  161.6197 N.am    1  UNL1       -0.2678
      2 C         140.5630  138.9168  160.2379 C.2     1  UNL1        0.2493
      3 O         139.4192  138.0264  159.8520 O.2     1  UNL1       -0.2699
      4 C         141.6073  139.4629  159.3099 C.ar    1  UNL1        0.0516
      5 C         141.8192  139.3052  157.8333 C.ar    1  UNL1        0.0043
      6 C         142.9769  139.9856  157.1650 C.ar    1  UNL1        0.0001
      7 C         143.9226  140.8238  157.9731 C.ar    1  UNL1       -0.0003
      8 C         143.7107  140.9815  159.4496 C.ar    1  UNL1       -0.0021
      9 C         142.5530  140.3010  160.1180 C.ar    1  UNL1        0.0089
     10 C         142.0932  140.2730  161.5455 C.3     1  UNL1        0.1751
     11 C         138.4910  138.5121  165.3348 C.3     1  UNL1        0.0915
     12 C         138.4789  139.8957  164.7559 C.3     1  UNL1        0.0168
     13 C         139.2696  140.1976  163.5175 C.3     1  UNL1        0.0209
     14 C         140.0725  139.1157  162.8580 C.3     1  UNL1        0.0764
     15 C         140.0847  137.7320  163.4370 C.3     1  UNL1        0.0209
     16 C         139.2939  137.4302  164.6754 C.3     1  UNL1        0.0168
     17 N         136.9095  137.9085  167.8116 N.1     1  UNL1       -0.1959
     18 C         137.7003  138.2103  166.5732 C.1     1  UNL1        0.0721
     19 C         142.7483  140.9769  162.6968 C.2     1  UNL1        0.2451
     20 O         143.8576  140.3072  163.4522 O.2     1  UNL1       -0.2729
     21 N         142.2940  142.3506  163.0926 N.am    1  UNL1       -0.2988
     22 H         141.5658  142.7902  162.5968 H       1  UNL1        0.1498
     23 C         142.9491  143.0545  164.2439 C.3     1  UNL1        0.1164
     24 C         142.4719  142.8064  165.6441 C.ar    1  UNL1       -0.0024
     25 C         143.4582  142.4761  166.7250 C.ar    1  UNL1        0.0005
     26 C         142.9811  142.2279  168.1254 C.ar    1  UNL1        0.0369
     27 C         141.5178  142.3102  168.4448 C.ar    1  UNL1        0.1468
     28 C         140.5316  142.6405  167.3639 C.ar    1  UNL1        0.0369
     29 C         141.0087  142.8886  165.9636 C.ar    1  UNL1        0.0005
     30 O         141.0407  142.0621  169.8451 O.3     1  UNL1       -0.4045
     31 C         139.6852  141.4644  170.0806 C.3     1  UNL1        0.5753
     32 F         138.3297  140.8668  170.3162 F       1  UNL1       -0.1328
     33 F         139.2115  142.7658  170.6568 F       1  UNL1       -0.1328
     34 F         140.1589  140.1630  169.5044 F       1  UNL1       -0.1328
@<TRIPOS>BOND
     1    17    18    3
     2    11    18    1
     3    11    12    1
     4    12    13    1
     5    13    14    1
     6    14     1    1
     7     1     2   am
     8     2     3    2
     9     2     4    1
    10     4     5   ar
    11     5     6   ar
    12     6     7   ar
    13     7     8   ar
    14     8     9   ar
    15     9    10    1
    16    10    19    1
    17    19    20    2
    18    19    21   am
    19    21    23    1
    20    23    24    1
    21    24    25   ar
    22    25    26   ar
    23    26    27   ar
    24    27    30    1
    25    30    31    1
    26    31    32    1
    27    31    33    1
    28    31    34    1
    29    27    28   ar
    30    28    29   ar
    31    14    15    1
    32    15    16    1
    33    16    11    1
    34    10     1    1
    35    29    24   ar
    36     9     4   ar
    37    21    22    1
@<TRIPOS>MOLECULE
*****
 34 37 0 0 0
SMALL
GASTEIGER

@<TRIPOS>ATOM
      1 N         140.9593  143.9777  159.9323 N.am    1  UNL1       -0.2678
      2 C         141.1584  144.7920  158.6884 C.2     1  UNL1        0.2493
      3 O         142.2419  145.8041  158.4612 O.2     1  UNL1       -0.2699
      4 C         140.0837  144.4166  157.7116 C.ar    1  UNL1        0.0516
      5 C         139.7797  144.8923  156.3220 C.ar    1  UNL1        0.0043
      6 C         138.6124  144.3217  155.5725 C.ar    1  UNL1        0.0001
      7 C         137.7491  143.2754  156.2127 C.ar    1  UNL1       -0.0003
      8 C         138.0531  142.7996  157.6024 C.ar    1  UNL1       -0.0021
      9 C         139.2204  143.3702  158.3518 C.ar    1  UNL1        0.0089
     10 C         139.7616  143.0990  159.7243 C.3     1  UNL1        0.1751
     11 C         143.5078  144.1420  163.6375 C.3     1  UNL1        0.0915
     12 C         144.0025  143.4217  162.4183 C.3     1  UNL1        0.0168
     13 C         143.1530  143.3670  161.1832 C.3     1  UNL1        0.0209
     14 C         141.8088  144.0324  161.1674 C.3     1  UNL1        0.0764
     15 C         141.3142  144.7527  162.3866 C.3     1  UNL1        0.0209
     16 C         142.1637  144.8074  163.6216 C.3     1  UNL1        0.0168
     17 N         145.2068  144.2515  166.1076 N.1     1  UNL1       -0.1959
     18 C         144.3573  144.1967  164.8725 C.1     1  UNL1        0.0721
     19 C         139.2031  142.1207  160.7147 C.2     1  UNL1        0.2451
     20 O         139.6931  140.7032  160.7269 O.2     1  UNL1       -0.2729
     21 N         138.1543  142.5601  161.6932 N.am    1  UNL1       -0.2988
     22 H         137.8326  143.4905  161.6852 H       1  UNL1        0.1498
     23 C         137.5958  141.5818  162.6837 C.3     1  UNL1        0.1164
     24 C         138.2871  141.3674  163.9974 C.ar    1  UNL1       -0.0024
     25 C         139.1413  142.4534  164.5814 C.ar    1  UNL1        0.0005
     26 C         139.8327  142.2391  165.8952 C.ar    1  UNL1        0.0369
     27 C         139.6700  140.9387  166.6250 C.ar    1  UNL1        0.1468
     28 C         138.8158  139.8527  166.0410 C.ar    1  UNL1        0.0369
     29 C         138.1244  140.0671  164.7272 C.ar    1  UNL1        0.0005
     30 O         140.3613  140.7243  167.9388 O.3     1  UNL1       -0.4045
     31 C         139.8046  141.3396  169.1884 C.3     1  UNL1        0.5753
     32 F         139.2479  141.9549  170.4380 F       1  UNL1       -0.1328
     33 F         138.8702  140.1767  169.3447 F       1  UNL1       -0.1328
     34 F         140.7391  142.5025  169.0321 F       1  UNL1       -0.1328
@<TRIPOS>BOND
     1    17    18    3
     2    11    18    1
     3    11    12    1
     4    12    13    1
     5    13    14    1
     6    14     1    1
     7     1     2   am
     8     2     3    2
     9     2     4    1
    10     4     5   ar
    11     5     6   ar
    12     6     7   ar
    13     7     8   ar
    14     8     9   ar
    15     9    10    1
    16    10    19    1
    17    19    20    2
    18    19    21   am
    19    21    23    1
    20    23    24    1
    21    24    25   ar
    22    25    26   ar
    23    26    27   ar
    24    27    30    1
    25    30    31    1
    26    31    32    1
    27    31    33    1
    28    31    34    1
    29    27    28   ar
    30    28    29   ar
    31    14    15    1
    32    15    16    1
    33    16    11    1
    34    10     1    1
    35    29    24   ar
    36     9     4   ar
    37    21    22    1
@<TRIPOS>MOLECULE
*****
 34 37 0 0 0
SMALL
GASTEIGER

@<TRIPOS>ATOM
      1 N         141.1191  142.3427  166.6594 N.am    1  UNL1       -0.2678
      2 C         140.7955  142.5935  168.1025 C.2     1  UNL1        0.2493
      3 O         140.0601  143.7818  168.6475 O.2     1  UNL1       -0.2699
      4 C         141.3363  141.4473  168.9048 C.ar    1  UNL1        0.0516
      5 C         141.3148  141.1531  170.3755 C.ar    1  UNL1        0.0043
      6 C         141.9511  139.8997  170.8990 C.ar    1  UNL1        0.0001
      7 C         142.6090  138.9405  169.9518 C.ar    1  UNL1       -0.0003
      8 C         142.6305  139.2347  168.4812 C.ar    1  UNL1       -0.0021
      9 C         141.9942  140.4881  167.9577 C.ar    1  UNL1        0.0089
     10 C         141.8599  141.0415  166.5699 C.3     1  UNL1        0.1751
     11 C         140.0542  145.0232  163.2053 C.3     1  UNL1        0.0915
     12 C         141.4844  144.6382  163.4428 C.3     1  UNL1        0.0168
     13 C         141.8393  143.7447  164.5942 C.3     1  UNL1        0.0209
     14 C         140.7641  143.2362  165.5080 C.3     1  UNL1        0.0764
     15 C         139.3340  143.6211  165.2705 C.3     1  UNL1        0.0209
     16 C         138.9790  144.5146  164.1192 C.3     1  UNL1        0.0168
     17 N         139.3443  146.8101  160.9025 N.1     1  UNL1       -0.1959
     18 C         139.6993  145.9167  162.0539 C.1     1  UNL1        0.0721
     19 C         142.3759  140.4053  165.3133 C.2     1  UNL1        0.2451
     20 O         141.4152  139.8407  164.3093 O.2     1  UNL1       -0.2729
     21 N         143.8528  140.3337  165.0608 N.am    1  UNL1       -0.2988
     22 H         144.4835  140.7042  165.7197 H       1  UNL1        0.1498
     23 C         144.3688  139.6975  163.8042 C.3     1  UNL1        0.1164
     24 C         144.3530  140.4635  162.5147 C.ar    1  UNL1       -0.0024
     25 C         144.8016  141.8946  162.4870 C.ar    1  UNL1        0.0005
     26 C         144.7857  142.6608  161.1974 C.ar    1  UNL1        0.0369
     27 C         144.3212  141.9958  159.9356 C.ar    1  UNL1        0.1468
     28 C         143.8726  140.5647  159.9634 C.ar    1  UNL1        0.0369
     29 C         143.8885  139.7986  161.2529 C.ar    1  UNL1        0.0005
     30 O         144.3053  142.7619  158.6461 O.3     1  UNL1       -0.4045
     31 C         145.2067  142.3521  157.5193 C.3     1  UNL1        0.5753
     32 F         146.1080  141.9424  156.3925 F       1  UNL1       -0.1328
     33 F         144.0358  141.7480  156.8024 F       1  UNL1       -0.1328
     34 F         146.3776  142.9563  158.2362 F       1  UNL1       -0.1328
@<TRIPOS>BOND
     1    17    18    3
     2    11    18    1
     3    11    12    1
     4    12    13    1
     5    13    14    1
     6    14     1    1
     7     1     2   am
     8     2     3    2
     9     2     4    1
    10     4     5   ar
    11     5     6   ar
    12     6     7   ar
    13     7     8   ar
    14     8     9   ar
    15     9    10    1
    16    10    19    1
    17    19    20    2
    18    19    21   am
    19    21    23    1
    20    23    24    1
    21    24    25   ar
    22    25    26   ar
    23    26    27   ar
    24    27    30    1
    25    30    31    1
    26    31    32    1
    27    31    33    1
    28    31    34    1
    29    27    28   ar
    30    28    29   ar
    31    14    15    1
    32    15    16    1
    33    16    11    1
    34    10     1    1
    35    29    24   ar
    36     9     4   ar
    37    21    22    1
@<TRIPOS>MOLECULE
*****
 34 37 0 0 0
SMALL
GASTEIGER

@<TRIPOS>ATOM
      1 N         138.8369  141.2187  160.2127 N.am    1  UNL1       -0.2678
      2 C         138.3968  141.5640  158.8209 C.2     1  UNL1        0.2493
      3 O         137.7194  142.8345  158.4001 O.2     1  UNL1       -0.2699
      4 C         138.7530  140.4158  157.9238 C.ar    1  UNL1        0.0516
      5 C         138.5614  140.1946  156.4527 C.ar    1  UNL1        0.0043
      6 C         139.0301  138.9185  155.8189 C.ar    1  UNL1        0.0001
      7 C         139.6903  137.8635  156.6562 C.ar    1  UNL1       -0.0003
      8 C         139.8819  138.0847  158.1274 C.ar    1  UNL1       -0.0021
      9 C         139.4132  139.3609  158.7612 C.ar    1  UNL1        0.0089
     10 C         139.4651  139.8571  160.1758 C.3     1  UNL1        0.1751
     11 C         138.3570  143.8123  163.8587 C.3     1  UNL1        0.0915
     12 C         137.5596  142.5486  163.7270 C.3     1  UNL1        0.0168
     13 C         137.7196  141.6841  162.5116 C.3     1  UNL1        0.0209
     14 C         138.6769  142.0832  161.4281 C.3     1  UNL1        0.0764
     15 C         139.4742  143.3469  161.5598 C.3     1  UNL1        0.0209
     16 C         139.3142  144.2114  162.7751 C.3     1  UNL1        0.0168
     17 N         138.0370  145.5413  166.2894 N.1     1  UNL1       -0.1959
     18 C         138.1970  144.6768  165.0740 C.1     1  UNL1        0.0721
     19 C         140.0436  139.1209  161.3477 C.2     1  UNL1        0.2451
     20 O         141.5311  139.0375  161.5210 O.2     1  UNL1       -0.2729
     21 N         139.1344  138.4680  162.3464 N.am    1  UNL1       -0.2988
     22 H         138.1580  138.5227  162.2326 H       1  UNL1        0.1498
     23 C         139.7129  137.7318  163.5183 C.3     1  UNL1        0.1164
     24 C         139.9965  138.4625  164.7972 C.ar    1  UNL1       -0.0024
     25 C         138.8680  139.0533  165.5893 C.ar    1  UNL1        0.0005
     26 C         139.1515  139.7841  166.8684 C.ar    1  UNL1        0.0369
     27 C         140.5634  139.9240  167.3551 C.ar    1  UNL1        0.1468
     28 C         141.6918  139.3331  166.5629 C.ar    1  UNL1        0.0369
     29 C         141.4084  138.6024  165.2839 C.ar    1  UNL1        0.0005
     30 O         140.8470  140.6547  168.6340 O.3     1  UNL1       -0.4045
     31 C         140.4586  142.0966  168.7759 C.3     1  UNL1        0.5753
     32 F         140.0702  143.5385  168.9177 F       1  UNL1       -0.1328
     33 F         139.5496  141.7398  169.9145 F       1  UNL1       -0.1328
     34 F         141.3676  142.4534  167.6372 F       1  UNL1       -0.1328
@<TRIPOS>BOND
     1    17    18    3
     2    11    18    1
     3    11    12    1
     4    12    13    1
     5    13    14    1
     6    14     1    1
     7     1     2   am
     8     2     3    2
     9     2     4    1
    10     4     5   ar
    11     5     6   ar
    12     6     7   ar
    13     7     8   ar
    14     8     9   ar
    15     9    10    1
    16    10    19    1
    17    19    20    2
    18    19    21   am
    19    21    23    1
    20    23    24    1
    21    24    25   ar
    22    25    26   ar
    23    26    27   ar
    24    27    30    1
    25    30    31    1
    26    31    32    1
    27    31    33    1
    28    31    34    1
    29    27    28   ar
    30    28    29   ar
    31    14    15    1
    32    15    16    1
    33    16    11    1
    34    10     1    1
    35    29    24   ar
    36     9     4   ar
    37    21    22    1
@<TRIPOS>MOLECULE
*****
 34 37 0 0 0
SMALL
GASTEIGER

@<TRIPOS>ATOM
      1 N         140.7129  139.1097  161.3698 N.am    1  UNL1       -0.2678
      2 C         140.2001  138.7905  159.9967 C.2     1  UNL1        0.2493
      3 O         138.8603  138.1998  159.6711 O.2     1  UNL1       -0.2699
      4 C         141.2624  139.1658  159.0064 C.ar    1  UNL1        0.0516
      5 C         141.3161  139.0768  157.5100 C.ar    1  UNL1        0.0043
      6 C         142.5390  139.5390  156.7746 C.ar    1  UNL1        0.0001
      7 C         143.7083  140.0901  157.5356 C.ar    1  UNL1       -0.0003
      8 C         143.6546  140.1790  159.0320 C.ar    1  UNL1       -0.0021
      9 C         142.4317  139.7168  159.7674 C.ar    1  UNL1        0.0089
     10 C         142.0920  139.6822  161.2280 C.3     1  UNL1        0.1751
     11 C         138.5017  138.4632  165.2354 C.3     1  UNL1        0.0915
     12 C         139.3868  137.3830  164.6879 C.3     1  UNL1        0.0168
     13 C         140.1238  137.5985  163.3994 C.3     1  UNL1        0.0209
     14 C         139.9758  138.8942  162.6583 C.3     1  UNL1        0.0764
     15 C         139.0907  139.9744  163.2058 C.3     1  UNL1        0.0209
     16 C         138.3537  139.7589  164.4943 C.3     1  UNL1        0.0168
     17 N         137.0276  138.0322  167.8124 N.1     1  UNL1       -0.1959
     18 C         137.7647  138.2477  166.5239 C.1     1  UNL1        0.0721
     19 C         142.9763  140.1397  162.3499 C.2     1  UNL1        0.2451
     20 O         143.4814  141.5518  162.3788 O.2     1  UNL1       -0.2729
     21 N         143.3557  139.1850  163.4431 N.am    1  UNL1       -0.2988
     22 H         143.0242  138.2582  163.4241 H       1  UNL1        0.1498
     23 C         144.2400  139.6425  164.5650 C.3     1  UNL1        0.1164
     24 C         143.6328  140.1705  165.8309 C.ar    1  UNL1       -0.0024
     25 C         143.1746  139.2194  166.8964 C.ar    1  UNL1        0.0005
     26 C         142.5674  139.7474  168.1624 C.ar    1  UNL1        0.0369
     27 C         142.4184  141.2264  168.3628 C.ar    1  UNL1        0.1468
     28 C         142.8766  142.1775  167.2972 C.ar    1  UNL1        0.0369
     29 C         143.4838  141.6496  166.0312 C.ar    1  UNL1        0.0005
     30 O         141.8112  141.7544  169.6287 O.3     1  UNL1       -0.4045
     31 C         141.0861  143.0675  169.6218 C.3     1  UNL1        0.5753
     32 F         140.3609  144.3805  169.6149 F       1  UNL1       -0.1328
     33 F         142.2508  143.7143  170.3110 F       1  UNL1       -0.1328
     34 F         139.9214  142.4206  168.9326 F       1  UNL1       -0.1328
@<TRIPOS>BOND
     1    17    18    3
     2    11    18    1
     3    11    12    1
     4    12    13    1
     5    13    14    1
     6    14     1    1
     7     1     2   am
     8     2     3    2
     9     2     4    1
    10     4     5   ar
    11     5     6   ar
    12     6     7   ar
    13     7     8   ar
    14     8     9   ar
    15     9    10    1
    16    10    19    1
    17    19    20    2
    18    19    21   am
    19    21    23    1
    20    23    24    1
    21    24    25   ar
    22    25    26   ar
    23    26    27   ar
    24    27    30    1
    25    30    31    1
    26    31    32    1
    27    31    33    1
    28    31    34    1
    29    27    28   ar
    30    28    29   ar
    31    14    15    1
    32    15    16    1
    33    16    11    1
    34    10     1    1
    35    29    24   ar
    36     9     4   ar
    37    21    22    1
@<TRIPOS>MOLECULE
*****
 34 37 0 0 0
SMALL
GASTEIGER

@<TRIPOS>ATOM
      1 N         142.0744  139.7783  166.2018 N.am    1  UNL1       -0.2678
      2 C         142.7453  139.1821  167.4036 C.2     1  UNL1        0.2493
      3 O         143.7206  138.0425  167.3942 O.2     1  UNL1       -0.2699
      4 C         142.2696  139.9254  168.6166 C.ar    1  UNL1        0.0516
      5 C         142.5904  139.7774  170.0743 C.ar    1  UNL1        0.0043
      6 C         141.9463  140.6851  171.0799 C.ar    1  UNL1        0.0001
      7 C         140.9814  141.7408  170.6277 C.ar    1  UNL1       -0.0003
      8 C         140.6606  141.8888  169.1700 C.ar    1  UNL1       -0.0021
      9 C         141.3047  140.9811  168.1644 C.ar    1  UNL1        0.0089
     10 C         141.1841  140.8902  166.6720 C.3     1  UNL1        0.1751
     11 C         142.6344  138.4626  161.9351 C.3     1  UNL1        0.0915
     12 C         143.2372  139.7523  162.4075 C.3     1  UNL1        0.0168
     13 C         143.0505  140.1909  163.8297 C.3     1  UNL1        0.0209
     14 C         142.2611  139.3398  164.7796 C.3     1  UNL1        0.0764
     15 C         141.6583  138.0500  164.3072 C.3     1  UNL1        0.0209
     16 C         141.8450  137.6114  162.8849 C.3     1  UNL1        0.0168
     17 N         143.0077  137.5854  159.0906 N.1     1  UNL1       -0.1959
     18 C         142.8211  138.0240  160.5128 C.1     1  UNL1        0.0721
     19 C         140.3241  141.7588  165.8025 C.2     1  UNL1        0.2451
     20 O         139.1128  141.1827  165.1312 O.2     1  UNL1       -0.2729
     21 N         140.6756  143.2035  165.6041 N.am    1  UNL1       -0.2988
     22 H         141.4707  143.5817  166.0447 H       1  UNL1        0.1498
     23 C         139.8156  144.0721  164.7346 C.3     1  UNL1        0.1164
     24 C         140.2551  144.4060  163.3399 C.ar    1  UNL1       -0.0024
     25 C         139.5368  145.4680  162.5613 C.ar    1  UNL1        0.0005
     26 C         139.9762  145.8020  161.1665 C.ar    1  UNL1        0.0369
     27 C         141.1339  145.0740  160.5503 C.ar    1  UNL1        0.1468
     28 C         141.8522  144.0119  161.3289 C.ar    1  UNL1        0.0369
     29 C         141.4128  143.6780  162.7237 C.ar    1  UNL1        0.0005
     30 O         141.5734  145.4079  159.1556 O.3     1  UNL1       -0.4045
     31 C         140.6852  145.0827  157.9913 C.3     1  UNL1        0.5753
     32 F         139.7971  144.7575  156.8271 F       1  UNL1       -0.1328
     33 F         141.0651  143.6361  158.1056 F       1  UNL1       -0.1328
     34 F         140.3054  146.5293  157.8770 F       1  UNL1       -0.1328
@<TRIPOS>BOND
     1    17    18    3
     2    11    18    1
     3    11    12    1
     4    12    13    1
     5    13    14    1
     6    14     1    1
     7     1     2   am
     8     2     3    2
     9     2     4    1
    10     4     5   ar
    11     5     6   ar
    12     6     7   ar
    13     7     8   ar
    14     8     9   ar
    15     9    10    1
    16    10    19    1
    17    19    20    2
    18    19    21   am
    19    21    23    1
    20    23    24    1
    21    24    25   ar
    22    25    26   ar
    23    26    27   ar
    24    27    30    1
    25    30    31    1
    26    31    32    1
    27    31    33    1
    28    31    34    1
    29    27    28   ar
    30    28    29   ar
    31    14    15    1
    32    15    16    1
    33    16    11    1
    34    10     1    1
    35    29    24   ar
    36     9     4   ar
    37    21    22    1
@<TRIPOS>MOLECULE
*****
 34 37 0 0 0
SMALL
GASTEIGER

@<TRIPOS>ATOM
      1 N         139.8843  140.4710  166.4168 N.am    1  UNL1       -0.2678
      2 C         139.3772  139.8818  167.6997 C.2     1  UNL1        0.2493
      3 O         138.1645  139.0122  167.8518 O.2     1  UNL1       -0.2699
      4 C         140.2956  140.3149  168.8037 C.ar    1  UNL1        0.0516
      5 C         140.2921  140.0397  170.2782 C.ar    1  UNL1        0.0043
      6 C         141.3634  140.6214  171.1522 C.ar    1  UNL1        0.0001
      7 C         142.4382  141.4783  170.5517 C.ar    1  UNL1       -0.0003
      8 C         142.4417  141.7535  169.0772 C.ar    1  UNL1       -0.0021
      9 C         141.3704  141.1718  168.2032 C.ar    1  UNL1        0.0089
     10 C         141.1162  141.2682  166.7280 C.3     1  UNL1        0.1751
     11 C         138.0348  139.9400  162.3490 C.3     1  UNL1        0.0915
     12 C         137.5404  141.0224  163.2621 C.3     1  UNL1        0.0168
     13 C         138.1569  141.1994  164.6181 C.3     1  UNL1        0.0209
     14 C         139.2678  140.2940  165.0609 C.3     1  UNL1        0.0764
     15 C         139.7622  139.2116  164.1477 C.3     1  UNL1        0.0209
     16 C         139.1457  139.0346  162.7917 C.3     1  UNL1        0.0168
     17 N         136.8018  139.5861  159.6370 N.1     1  UNL1       -0.1959
     18 C         137.4183  139.7630  160.9930 C.1     1  UNL1        0.0721
     19 C         141.9479  142.0285  165.7379 C.2     1  UNL1        0.2451
     20 O         143.2747  141.4843  165.2983 O.2     1  UNL1       -0.2729
     21 N         141.4527  143.3331  165.1874 N.am    1  UNL1       -0.2988
     22 H         140.5819  143.6903  165.4760 H       1  UNL1        0.1498
     23 C         142.2844  144.0933  164.1973 C.3     1  UNL1        0.1164
     24 C         141.6869  144.5254  162.8911 C.ar    1  UNL1       -0.0024
     25 C         142.2584  144.0177  161.6005 C.ar    1  UNL1        0.0005
     26 C         141.6610  144.4498  160.2942 C.ar    1  UNL1        0.0369
     27 C         140.4920  145.3896  160.2785 C.ar    1  UNL1        0.1468
     28 C         139.9205  145.8973  161.5691 C.ar    1  UNL1        0.0369
     29 C         140.5180  145.4652  162.8754 C.ar    1  UNL1        0.0005
     30 O         139.8945  145.8217  158.9723 O.3     1  UNL1       -0.4045
     31 C         140.3224  145.1594  157.6963 C.3     1  UNL1        0.5753
     32 F         140.7503  144.4971  156.4203 F       1  UNL1       -0.1328
     33 F         141.2513  146.3029  157.4142 F       1  UNL1       -0.1328
     34 F         139.3935  144.0159  157.9783 F       1  UNL1       -0.1328
@<TRIPOS>BOND
     1    17    18    3
     2    11    18    1
     3    11    12    1
     4    12    13    1
     5    13    14    1
     6    14     1    1
     7     1     2   am
     8     2     3    2
     9     2     4    1
    10     4     5   ar
    11     5     6   ar
    12     6     7   ar
    13     7     8   ar
    14     8     9   ar
    15     9    10    1
    16    10    19    1
    17    19    20    2
    18    19    21   am
    19    21    23    1
    20    23    24    1
    21    24    25   ar
    22    25    26   ar
    23    26    27   ar
    24    27    30    1
    25    30    31    1
    26    31    32    1
    27    31    33    1
    28    31    34    1
    29    27    28   ar
    30    28    29   ar
    31    14    15    1
    32    15    16    1
    33    16    11    1
    34    10     1    1
    35    29    24   ar
    36     9     4   ar
    37    21    22    1
@<TRIPOS>MOLECULE
*****
 34 37 0 0 0
SMALL
GASTEIGER

@<TRIPOS>ATOM
      1 N         142.6270  143.3486  158.8057 N.am    1  UNL1       -0.2678
      2 C         143.2086  143.3711  157.4232 C.2     1  UNL1        0.2493
      3 O         144.3910  142.5780  156.9511 O.2     1  UNL1       -0.2699
      4 C         142.4002  144.3260  156.5957 C.ar    1  UNL1        0.0516
      5 C         142.5089  144.7519  155.1616 C.ar    1  UNL1        0.0043
      6 C         141.5365  145.7455  154.5986 C.ar    1  UNL1        0.0001
      7 C         140.4553  146.3131  155.4696 C.ar    1  UNL1       -0.0003
      8 C         140.3465  145.8872  156.9037 C.ar    1  UNL1       -0.0021
      9 C         141.3190  144.8937  157.4668 C.ar    1  UNL1        0.0089
     10 C         141.4592  144.2896  158.8326 C.3     1  UNL1        0.1751
     11 C         144.1231  140.8900  162.2650 C.3     1  UNL1        0.0915
     12 C         144.4510  142.3516  162.1864 C.3     1  UNL1        0.0168
     13 C         143.9523  143.1711  161.0333 C.3     1  UNL1        0.0209
     14 C         143.1257  142.5291  159.9588 C.3     1  UNL1        0.0764
     15 C         142.7979  141.0675  160.0374 C.3     1  UNL1        0.0209
     16 C         143.2966  140.2479  161.1905 C.3     1  UNL1        0.0168
     17 N         145.1205  139.2508  164.5712 N.1     1  UNL1       -0.1959
     18 C         144.6218  140.0704  163.4181 C.1     1  UNL1        0.0721
     19 C         140.5850  144.5763  160.0174 C.2     1  UNL1        0.2451
     20 O         139.2423  143.9182  160.1355 O.2     1  UNL1       -0.2729
     21 N         141.0536  145.5211  161.0841 N.am    1  UNL1       -0.2988
     22 H         141.9349  145.9530  161.0067 H       1  UNL1        0.1498
     23 C         140.1794  145.8077  162.2689 C.3     1  UNL1        0.1164
     24 C         140.2519  144.9311  163.4839 C.ar    1  UNL1       -0.0024
     25 C         139.1058  144.8935  164.4509 C.ar    1  UNL1        0.0005
     26 C         139.1782  144.0169  165.6660 C.ar    1  UNL1        0.0369
     27 C         140.3967  143.1779  165.9141 C.ar    1  UNL1        0.1468
     28 C         141.5427  143.2156  164.9470 C.ar    1  UNL1        0.0369
     29 C         141.4703  144.0922  163.7319 C.ar    1  UNL1        0.0005
     30 O         140.4692  142.3014  167.1291 O.3     1  UNL1       -0.4045
     31 C         141.2699  142.7360  168.3207 C.3     1  UNL1        0.5753
     32 F         142.0706  143.1706  169.5123 F       1  UNL1       -0.1328
     33 F         142.4208  141.8947  167.8542 F       1  UNL1       -0.1328
     34 F         140.1189  143.5773  168.7872 F       1  UNL1       -0.1328
@<TRIPOS>BOND
     1    17    18    3
     2    11    18    1
     3    11    12    1
     4    12    13    1
     5    13    14    1
     6    14     1    1
     7     1     2   am
     8     2     3    2
     9     2     4    1
    10     4     5   ar
    11     5     6   ar
    12     6     7   ar
    13     7     8   ar
    14     8     9   ar
    15     9    10    1
    16    10    19    1
    17    19    20    2
    18    19    21   am
    19    21    23    1
    20    23    24    1
    21    24    25   ar
    22    25    26   ar
    23    26    27   ar
    24    27    30    1
    25    30    31    1
    26    31    32    1
    27    31    33    1
    28    31    34    1
    29    27    28   ar
    30    28    29   ar
    31    14    15    1
    32    15    16    1
    33    16    11    1
    34    10     1    1
    35    29    24   ar
    36     9     4   ar
    37    21    22    1
@<TRIPOS>MOLECULE
*****
 34 37 0 0 0
SMALL
GASTEIGER

@<TRIPOS>ATOM
      1 N         139.7000  140.7471  166.5532 N.am    1  UNL1       -0.2678
      2 C         139.2359  140.0005  167.7686 C.2     1  UNL1        0.2493
      3 O         138.1801  138.9355  167.7994 O.2     1  UNL1       -0.2699
      4 C         140.0131  140.5058  168.9479 C.ar    1  UNL1        0.0516
      5 C         139.9829  140.1385  170.4019 C.ar    1  UNL1        0.0043
      6 C         140.8970  140.8301  171.3693 C.ar    1  UNL1        0.0001
      7 C         141.8415  141.8890  170.8827 C.ar    1  UNL1       -0.0003
      8 C         141.8717  142.2563  169.4287 C.ar    1  UNL1       -0.0021
      9 C         140.9576  141.5647  168.4613 C.ar    1  UNL1        0.0089
     10 C         140.7640  141.7138  166.9813 C.3     1  UNL1        0.1751
     11 C         138.1690  140.1853  162.3591 C.3     1  UNL1        0.0915
     12 C         137.5971  141.2662  163.2278 C.3     1  UNL1        0.0168
     13 C         138.1075  141.4534  164.6258 C.3     1  UNL1        0.0209
     14 C         139.1897  140.5598  165.1552 C.3     1  UNL1        0.0764
     15 C         139.7615  139.4790  164.2865 C.3     1  UNL1        0.0209
     16 C         139.2512  139.2917  162.8884 C.3     1  UNL1        0.0168
     17 N         137.1483  139.8108  159.5630 N.1     1  UNL1       -0.1959
     18 C         137.6586  139.9981  160.9611 C.1     1  UNL1        0.0721
     19 C         141.5045  142.6631  166.0866 C.2     1  UNL1        0.2451
     20 O         140.7516  143.6963  165.3022 O.2     1  UNL1       -0.2729
     21 N         142.9982  142.5790  165.9761 N.am    1  UNL1       -0.2988
     22 H         143.4924  141.9008  166.4909 H       1  UNL1        0.1498
     23 C         143.7387  143.5282  165.0814 C.3     1  UNL1        0.1164
     24 C         143.8684  143.2315  163.6168 C.ar    1  UNL1       -0.0024
     25 C         144.9109  142.2658  163.1367 C.ar    1  UNL1        0.0005
     26 C         145.0406  141.9690  161.6720 C.ar    1  UNL1        0.0369
     27 C         144.1279  142.6380  160.6875 C.ar    1  UNL1        0.1468
     28 C         143.0853  143.6037  161.1676 C.ar    1  UNL1        0.0369
     29 C         142.9556  143.9005  162.6322 C.ar    1  UNL1        0.0005
     30 O         144.2575  142.3413  159.2229 O.3     1  UNL1       -0.4045
     31 C         143.0509  142.4087  158.3343 C.3     1  UNL1        0.5753
     32 F         141.8443  142.4761  157.4458 F       1  UNL1       -0.1328
     33 F         142.6354  141.0430  158.7950 F       1  UNL1       -0.1328
     34 F         143.4665  143.7744  157.8736 F       1  UNL1       -0.1328
@<TRIPOS>BOND
     1    17    18    3
     2    11    18    1
     3    11    12    1
     4    12    13    1
     5    13    14    1
     6    14     1    1
     7     1     2   am
     8     2     3    2
     9     2     4    1
    10     4     5   ar
    11     5     6   ar
    12     6     7   ar
    13     7     8   ar
    14     8     9   ar
    15     9    10    1
    16    10    19    1
    17    19    20    2
    18    19    21   am
    19    21    23    1
    20    23    24    1
    21    24    25   ar
    22    25    26   ar
    23    26    27   ar
    24    27    30    1
    25    30    31    1
    26    31    32    1
    27    31    33    1
    28    31    34    1
    29    27    28   ar
    30    28    29   ar
    31    14    15    1
    32    15    16    1
    33    16    11    1
    34    10     1    1
    35    29    24   ar
    36     9     4   ar
    37    21    22    1
