@<TRIPOS>MOLECULE
*****
 41 46 0 0 0
SMALL
GASTEIGER

@<TRIPOS>ATOM
      1 C         140.2478  140.1220  166.4480 C.3     1  UNL1        0.1272
      2 C         139.9931  141.5929  166.3013 C.3     1  UNL1        0.0342
      3 C         141.1288  142.5660  166.4178 C.3     1  UNL1        0.0197
      4 C         142.5190  142.0680  166.6811 C.3     1  UNL1        0.0701
      5 C         142.7736  140.5971  166.8278 C.3     1  UNL1        0.0197
      6 C         141.6380  139.6241  166.7113 C.3     1  UNL1        0.0342
      7 C         141.9288  141.4967  166.6252 C.3     1  UNL1        0.1566
      8 O         140.9019  140.6169  166.5198 O.3     1  UNL1       -0.3518
      9 C         139.1122  139.1489  166.3315 C.2     1  UNL1        0.1032
     10 N         138.2632  138.8401  167.5289 N.2     1  UNL1       -0.0926
     11 O         138.5499  139.5044  168.8429 O.2     1  UNL1       -0.4092
     12 H         138.0196  139.3115  169.5909 H       1  UNL1        0.3278
     13 C         138.8255  138.4847  165.0174 C.3     1  UNL1        0.0772
     14 C         138.5371  141.8887  162.0883 C.ar    1  UNL1        0.2250
     15 C         139.5232  141.9955  160.9631 C.ar    1  UNL1        0.0593
     16 C         140.6055  140.9677  160.8142 C.ar    1  UNL1        0.0254
     17 C         140.7017  139.8329  161.7906 C.ar    1  UNL1        0.0990
     18 N         141.7839  138.8051  161.6417 N.ar    1  UNL1       -0.2400
     19 C         141.8801  137.6704  162.6181 C.ar    1  UNL1        0.1281
     20 C         140.8940  137.5636  163.7433 C.ar    1  UNL1        0.1570
     21 F         140.9902  136.4289  164.7197 F       1  UNL1       -0.2028
     22 C         139.8117  138.5915  163.8922 C.ar    1  UNL1        0.0318
     23 C         139.7155  139.7261  162.9158 C.ar    1  UNL1        0.1005
     24 N         138.6332  140.7540  163.0647 N.ar    1  UNL1       -0.2104
     25 C         137.6651  144.1032  163.1303 C.3     1  UNL1        0.2542
     26 O         137.4548  142.9165  162.2372 O.3     1  UNL1       -0.4561
     27 N         143.6547  143.0410  166.7976 N.3     1  UNL1       -0.2926
     28 H         144.2418  142.7176  167.5664 H       1  UNL1        0.1236
     29 C         144.5637  143.2764  165.6278 C.3     1  UNL1        0.1152
     30 C         143.9849  143.5282  164.2671 C.ar    1  UNL1        0.0765
     31 C         144.6161  142.9061  163.0568 C.ar    1  UNL1        0.0193
     32 C         144.0374  143.1580  161.6960 C.ar    1  UNL1        0.0411
     33 C         142.8275  144.0318  161.5456 C.ar    1  UNL1        0.1708
     34 C         142.1964  144.6539  162.7558 C.ar    1  UNL1        0.1682
     35 N         142.7751  144.4021  164.1166 N.ar    1  UNL1       -0.2304
     36 N         140.9865  145.5278  162.6054 N.am    1  UNL1       -0.2639
     37 C         140.4078  145.7796  161.2446 C.2     1  UNL1        0.2718
     38 O         139.1979  146.6534  161.0941 O.2     1  UNL1       -0.2707
     39 C         141.0389  145.1575  160.0343 C.3     1  UNL1        0.2898
     40 O         142.2487  144.2837  160.1848 O.3     1  UNL1       -0.4628
     41 H         140.5723  145.9360  163.3997 H       1  UNL1        0.1565
@<TRIPOS>BOND
     1    25    26    1
     2    26    14    1
     3    14    15   ar
     4    15    16   ar
     5    16    17   ar
     6    17    18   ar
     7    18    19   ar
     8    19    20   ar
     9    20    21    1
    10    20    22   ar
    11    22    13    1
    12    13     9    1
    13     9    10    2
    14    10    11    1
    15     9     1    1
    16     1     2    1
    17     2     3    1
    18     3     4    1
    19     4    27    1
    20    27    29    1
    21    29    30    1
    22    30    31   ar
    23    31    32   ar
    24    32    33   ar
    25    33    34   ar
    26    34    35   ar
    27    34    36    1
    28    36    37   am
    29    37    38    2
    30    37    39    1
    31    39    40    1
    32     4     5    1
    33     5     6    1
    34     4     7    1
    35     7     8    1
    36    22    23   ar
    37    23    24   ar
    38    24    14   ar
    39    23    17   ar
    40     6     1    1
    41     8     1    1
    42    35    30   ar
    43    40    33    1
    44    11    12    1
    45    27    28    1
    46    36    41    1
@<TRIPOS>MOLECULE
*****
 41 46 0 0 0
SMALL
GASTEIGER

@<TRIPOS>ATOM
      1 C         143.5168  142.1639  163.8950 C.3     1  UNL1        0.1272
      2 C         142.9284  143.0481  164.9543 C.3     1  UNL1        0.0342
      3 C         142.1805  144.2888  164.5652 C.3     1  UNL1        0.0197
      4 C         142.0210  144.6452  163.1169 C.3     1  UNL1        0.0701
      5 C         142.6094  143.7610  162.0577 C.3     1  UNL1        0.0197
      6 C         143.3573  142.5204  162.4468 C.3     1  UNL1        0.0342
      7 C         142.4391  143.9553  163.2814 C.3     1  UNL1        0.1566
      8 O         143.1154  142.8334  163.6332 O.3     1  UNL1       -0.3518
      9 C         144.2647  140.9232  164.2840 C.2     1  UNL1        0.1032
     10 N         145.7135  140.7769  163.9241 N.2     1  UNL1       -0.0926
     11 O         146.4144  141.8714  163.1752 O.2     1  UNL1       -0.4092
     12 H         147.3194  141.7800  162.9504 H       1  UNL1        0.3278
     13 C         143.5638  139.8288  165.0330 C.3     1  UNL1        0.0772
     14 C         139.5523  139.6754  167.0665 C.ar    1  UNL1        0.2250
     15 C         138.4143  138.9377  166.4255 C.ar    1  UNL1        0.0593
     16 C         138.6134  138.2512  165.1068 C.ar    1  UNL1        0.0254
     17 C         139.9506  138.3023  164.4290 C.ar    1  UNL1        0.0990
     18 N         140.1497  137.6158  163.1103 N.ar    1  UNL1       -0.2400
     19 C         141.4869  137.6669  162.4324 C.ar    1  UNL1        0.1281
     20 C         142.6249  138.4046  163.0734 C.ar    1  UNL1        0.1570
     21 F         143.9621  138.4557  162.3956 F       1  UNL1       -0.2028
     22 C         142.4258  139.0911  164.3921 C.ar    1  UNL1        0.0318
     23 C         141.0886  139.0400  165.0699 C.ar    1  UNL1        0.1005
     24 N         140.8895  139.7265  166.3887 N.ar    1  UNL1       -0.2104
     25 C         140.3684  140.1974  169.4772 C.3     1  UNL1        0.2542
     26 O         139.3532  140.3619  168.3851 O.3     1  UNL1       -0.4561
     27 N         141.2731  145.8859  162.7278 N.3     1  UNL1       -0.2926
     28 H         141.7334  146.2590  161.8976 H       1  UNL1        0.1236
     29 C         139.8082  145.8112  162.4140 C.3     1  UNL1        0.1152
     30 C         139.1505  144.4775  162.2169 C.ar    1  UNL1        0.0765
     31 C         138.3863  143.8445  163.3418 C.ar    1  UNL1        0.0193
     32 C         137.7286  142.5109  163.1446 C.ar    1  UNL1        0.0411
     33 C         137.8352  141.8102  161.8225 C.ar    1  UNL1        0.1708
     34 C         138.5994  142.4432  160.6977 C.ar    1  UNL1        0.1682
     35 N         139.2570  143.7769  160.8949 N.ar    1  UNL1       -0.2304
     36 N         138.7059  141.7426  159.3756 N.am    1  UNL1       -0.2639
     37 C         138.0483  140.4089  159.1785 C.2     1  UNL1        0.2718
     38 O         138.1548  139.7083  157.8565 O.2     1  UNL1       -0.2707
     39 C         137.2841  139.7759  160.3034 C.3     1  UNL1        0.2898
     40 O         137.1775  140.4766  161.6254 O.3     1  UNL1       -0.4628
     41 H         139.2075  142.1580  158.6374 H       1  UNL1        0.1565
@<TRIPOS>BOND
     1    25    26    1
     2    26    14    1
     3    14    15   ar
     4    15    16   ar
     5    16    17   ar
     6    17    18   ar
     7    18    19   ar
     8    19    20   ar
     9    20    21    1
    10    20    22   ar
    11    22    13    1
    12    13     9    1
    13     9    10    2
    14    10    11    1
    15     9     1    1
    16     1     2    1
    17     2     3    1
    18     3     4    1
    19     4    27    1
    20    27    29    1
    21    29    30    1
    22    30    31   ar
    23    31    32   ar
    24    32    33   ar
    25    33    34   ar
    26    34    35   ar
    27    34    36    1
    28    36    37   am
    29    37    38    2
    30    37    39    1
    31    39    40    1
    32     4     5    1
    33     5     6    1
    34     4     7    1
    35     7     8    1
    36    22    23   ar
    37    23    24   ar
    38    24    14   ar
    39    23    17   ar
    40     6     1    1
    41     8     1    1
    42    35    30   ar
    43    40    33    1
    44    11    12    1
    45    27    28    1
    46    36    41    1
@<TRIPOS>MOLECULE
*****
 41 46 0 0 0
SMALL
GASTEIGER

@<TRIPOS>ATOM
      1 C         138.5506  139.9403  164.5398 C.3     1  UNL1        0.1272
      2 C         139.3325  140.9058  165.3804 C.3     1  UNL1        0.0342
      3 C         139.1836  142.3823  165.1613 C.3     1  UNL1        0.0197
      4 C         138.2529  142.8931  164.1016 C.3     1  UNL1        0.0701
      5 C         137.4711  141.9276  163.2611 C.3     1  UNL1        0.0197
      6 C         137.6200  140.4512  163.4802 C.3     1  UNL1        0.0342
      7 C         138.3012  142.0754  164.1848 C.3     1  UNL1        0.1566
      8 O         138.4359  140.7403  164.3829 O.3     1  UNL1       -0.3518
      9 C         138.6995  138.4639  164.7589 C.2     1  UNL1        0.1032
     10 N         138.0998  137.8218  165.9747 N.2     1  UNL1       -0.0926
     11 O         137.3512  138.6562  166.9713 O.2     1  UNL1       -0.4092
     12 H         136.9766  138.2552  167.7308 H       1  UNL1        0.3278
     13 C         139.4482  137.6295  163.7622 C.3     1  UNL1        0.0772
     14 C         143.2386  138.8300  165.8697 C.ar    1  UNL1        0.2250
     15 C         144.3722  139.4289  165.0911 C.ar    1  UNL1        0.0593
     16 C         144.2424  139.6276  163.6100 C.ar    1  UNL1        0.0254
     17 C         142.9789  139.2274  162.9075 C.ar    1  UNL1        0.0990
     18 N         142.8490  139.4262  161.4264 N.ar    1  UNL1       -0.2400
     19 C         141.5855  139.0260  160.7238 C.ar    1  UNL1        0.1281
     20 C         140.4519  138.4271  161.5024 C.ar    1  UNL1        0.1570
     21 F         139.1885  138.0269  160.8000 F       1  UNL1       -0.2028
     22 C         140.5818  138.2284  162.9836 C.ar    1  UNL1        0.0318
     23 C         141.8452  138.6285  163.6861 C.ar    1  UNL1        0.1005
     24 N         141.9751  138.4298  165.1672 N.ar    1  UNL1       -0.2104
     25 C         142.6002  139.5075  168.2953 C.3     1  UNL1        0.2542
     26 O         143.3684  138.6312  167.3507 O.3     1  UNL1       -0.4561
     27 N         138.1040  144.3696  163.8825 N.3     1  UNL1       -0.2926
     28 H         138.3124  144.8218  164.7727 H       1  UNL1        0.1236
     29 C         138.9335  145.0606  162.8411 C.3     1  UNL1        0.1152
     30 C         140.3606  144.6518  162.6262 C.ar    1  UNL1        0.0765
     31 C         141.4261  145.1223  163.5716 C.ar    1  UNL1        0.0193
     32 C         142.8532  144.7134  163.3567 C.ar    1  UNL1        0.0411
     33 C         143.2149  143.8341  162.1965 C.ar    1  UNL1        0.1708
     34 C         142.1495  143.3636  161.2513 C.ar    1  UNL1        0.1682
     35 N         140.7224  143.7725  161.4661 N.ar    1  UNL1       -0.2304
     36 N         142.5112  142.4843  160.0911 N.am    1  UNL1       -0.2639
     37 C         143.9383  142.0754  159.8762 C.2     1  UNL1        0.2718
     38 O         144.3001  141.1961  158.7161 O.2     1  UNL1       -0.2707
     39 C         145.0037  142.5459  160.8215 C.3     1  UNL1        0.2898
     40 O         144.6420  143.4252  161.9816 O.3     1  UNL1       -0.4628
     41 H         141.8119  142.1755  159.4706 H       1  UNL1        0.1565
@<TRIPOS>BOND
     1    25    26    1
     2    26    14    1
     3    14    15   ar
     4    15    16   ar
     5    16    17   ar
     6    17    18   ar
     7    18    19   ar
     8    19    20   ar
     9    20    21    1
    10    20    22   ar
    11    22    13    1
    12    13     9    1
    13     9    10    2
    14    10    11    1
    15     9     1    1
    16     1     2    1
    17     2     3    1
    18     3     4    1
    19     4    27    1
    20    27    29    1
    21    29    30    1
    22    30    31   ar
    23    31    32   ar
    24    32    33   ar
    25    33    34   ar
    26    34    35   ar
    27    34    36    1
    28    36    37   am
    29    37    38    2
    30    37    39    1
    31    39    40    1
    32     4     5    1
    33     5     6    1
    34     4     7    1
    35     7     8    1
    36    22    23   ar
    37    23    24   ar
    38    24    14   ar
    39    23    17   ar
    40     6     1    1
    41     8     1    1
    42    35    30   ar
    43    40    33    1
    44    11    12    1
    45    27    28    1
    46    36    41    1
@<TRIPOS>MOLECULE
*****
 41 46 0 0 0
SMALL
GASTEIGER

@<TRIPOS>ATOM
      1 C         138.7521  139.1630  165.5046 C.3     1  UNL1        0.1272
      2 C         138.0680  140.1326  164.5871 C.3     1  UNL1        0.0342
      3 C         138.0053  139.8550  163.1143 C.3     1  UNL1        0.0197
      4 C         138.6267  138.6077  162.5591 C.3     1  UNL1        0.0701
      5 C         139.3108  137.6382  163.4766 C.3     1  UNL1        0.0197
      6 C         139.3735  137.9158  164.9493 C.3     1  UNL1        0.0342
      7 C         138.6864  138.7168  163.3730 C.3     1  UNL1        0.1566
      8 O         138.7431  138.9679  164.7047 O.3     1  UNL1       -0.3518
      9 C         138.8149  139.4406  166.9773 C.2     1  UNL1        0.1032
     10 N         137.8974  138.7157  167.9169 N.2     1  UNL1       -0.0926
     11 O         136.9173  137.7133  167.3838 O.2     1  UNL1       -0.4092
     12 H         136.3442  137.2605  167.9707 H       1  UNL1        0.3278
     13 C         139.7951  140.4431  167.5105 C.3     1  UNL1        0.0772
     14 C         139.9434  144.1243  164.9266 C.ar    1  UNL1        0.2250
     15 C         141.1854  144.4455  164.1492 C.ar    1  UNL1        0.0593
     16 C         142.3780  143.5396  164.2332 C.ar    1  UNL1        0.0254
     17 C         142.3286  142.3125  165.0945 C.ar    1  UNL1        0.0990
     18 N         143.5212  141.4066  165.1785 N.ar    1  UNL1       -0.2400
     19 C         143.4718  140.1794  166.0398 C.ar    1  UNL1        0.1281
     20 C         142.2297  139.8583  166.8171 C.ar    1  UNL1        0.1570
     21 F         142.1803  138.6312  167.6784 F       1  UNL1       -0.2028
     22 C         141.0371  140.7643  166.7331 C.ar    1  UNL1        0.0318
     23 C         141.0866  141.9913  165.8719 C.ar    1  UNL1        0.1005
     24 N         139.8940  142.8973  165.7879 N.ar    1  UNL1       -0.2104
     25 C         137.3712  144.4478  164.7565 C.3     1  UNL1        0.2542
     26 O         138.7509  145.0302  164.8426 O.3     1  UNL1       -0.4561
     27 N         138.5640  138.3301  161.0863 N.3     1  UNL1       -0.2926
     28 H         137.8892  138.9854  160.6916 H       1  UNL1        0.1236
     29 C         139.8055  138.4310  160.2506 C.3     1  UNL1        0.1152
     30 C         140.7095  139.6198  160.3910 C.ar    1  UNL1        0.0765
     31 C         140.3554  140.9146  159.7215 C.ar    1  UNL1        0.0193
     32 C         141.2594  142.1033  159.8619 C.ar    1  UNL1        0.0411
     33 C         142.5176  141.9972  160.6718 C.ar    1  UNL1        0.1708
     34 C         142.8717  140.7024  161.3412 C.ar    1  UNL1        0.1682
     35 N         141.9676  139.5137  161.2008 N.ar    1  UNL1       -0.2304
     36 N         144.1298  140.5963  162.1511 N.am    1  UNL1       -0.2639
     37 C         145.0339  141.7850  162.2915 C.2     1  UNL1        0.2718
     38 O         146.2920  141.6790  163.1013 O.2     1  UNL1       -0.2707
     39 C         144.6797  143.0798  161.6220 C.3     1  UNL1        0.2898
     40 O         143.4216  143.1859  160.8122 O.3     1  UNL1       -0.4628
     41 H         144.3622  139.7465  162.5904 H       1  UNL1        0.1565
@<TRIPOS>BOND
     1    25    26    1
     2    26    14    1
     3    14    15   ar
     4    15    16   ar
     5    16    17   ar
     6    17    18   ar
     7    18    19   ar
     8    19    20   ar
     9    20    21    1
    10    20    22   ar
    11    22    13    1
    12    13     9    1
    13     9    10    2
    14    10    11    1
    15     9     1    1
    16     1     2    1
    17     2     3    1
    18     3     4    1
    19     4    27    1
    20    27    29    1
    21    29    30    1
    22    30    31   ar
    23    31    32   ar
    24    32    33   ar
    25    33    34   ar
    26    34    35   ar
    27    34    36    1
    28    36    37   am
    29    37    38    2
    30    37    39    1
    31    39    40    1
    32     4     5    1
    33     5     6    1
    34     4     7    1
    35     7     8    1
    36    22    23   ar
    37    23    24   ar
    38    24    14   ar
    39    23    17   ar
    40     6     1    1
    41     8     1    1
    42    35    30   ar
    43    40    33    1
    44    11    12    1
    45    27    28    1
    46    36    41    1
@<TRIPOS>MOLECULE
*****
 41 46 0 0 0
SMALL
GASTEIGER

@<TRIPOS>ATOM
      1 C         140.5015  139.8957  160.7963 C.3     1  UNL1        0.1272
      2 C         141.2546  141.1921  160.7478 C.3     1  UNL1        0.0342
      3 C         142.6899  141.2423  161.1808 C.3     1  UNL1        0.0197
      4 C         143.3721  139.9961  161.6622 C.3     1  UNL1        0.0701
      5 C         142.6189  138.6998  161.7107 C.3     1  UNL1        0.0197
      6 C         141.1837  138.6496  161.2778 C.3     1  UNL1        0.0342
      7 C         142.5843  139.9193  161.4353 C.3     1  UNL1        0.1566
      8 O         141.2865  139.8739  161.0438 O.3     1  UNL1       -0.3518
      9 C         139.0662  139.8455  160.3634 C.2     1  UNL1        0.1032
     10 N         138.7193  139.4368  158.9625 N.2     1  UNL1       -0.0926
     11 O         139.8076  139.0782  157.9946 O.2     1  UNL1       -0.4092
     12 H         139.5909  138.8229  157.1195 H       1  UNL1        0.3278
     13 C         137.9779  140.2041  161.3314 C.3     1  UNL1        0.0772
     14 C         138.5859  144.3600  162.9465 C.ar    1  UNL1        0.2250
     15 C         138.9090  144.5609  164.3975 C.ar    1  UNL1        0.0593
     16 C         139.0293  143.3766  165.3101 C.ar    1  UNL1        0.0254
     17 C         138.8266  141.9912  164.7717 C.ar    1  UNL1        0.0990
     18 N         138.9470  140.8069  165.6842 N.ar    1  UNL1       -0.2400
     19 C         138.7443  139.4215  165.1459 C.ar    1  UNL1        0.1281
     20 C         138.4213  139.2206  163.6949 C.ar    1  UNL1        0.1570
     21 F         138.2186  137.8353  163.1565 F       1  UNL1       -0.2028
     22 C         138.3009  140.4050  162.7823 C.ar    1  UNL1        0.0318
     23 C         138.5036  141.7903  163.3207 C.ar    1  UNL1        0.1005
     24 N         138.3832  142.9747  162.4082 N.ar    1  UNL1       -0.2104
     25 C         139.6902  146.3173  161.6429 C.3     1  UNL1        0.2542
     26 O         138.4656  145.5443  162.0340 O.3     1  UNL1       -0.4561
     27 N         144.8073  140.0463  162.0952 N.3     1  UNL1       -0.2926
     28 H         145.3067  140.5963  161.3962 H       1  UNL1        0.1236
     29 C         145.1672  140.6185  163.4343 C.3     1  UNL1        0.1152
     30 C         144.2756  140.3786  164.6165 C.ar    1  UNL1        0.0765
     31 C         144.0977  138.9887  165.1519 C.ar    1  UNL1        0.0193
     32 C         143.2061  138.7488  166.3341 C.ar    1  UNL1        0.0411
     33 C         142.4924  139.8989  166.9808 C.ar    1  UNL1        0.1708
     34 C         142.6703  141.2887  166.4454 C.ar    1  UNL1        0.1682
     35 N         143.5619  141.5285  165.2632 N.ar    1  UNL1       -0.2304
     36 N         141.9567  142.4387  167.0921 N.am    1  UNL1       -0.2639
     37 C         141.0651  142.1988  168.2743 C.2     1  UNL1        0.2718
     38 O         140.3514  143.3488  168.9210 O.2     1  UNL1       -0.2707
     39 C         140.8871  140.8089  168.8097 C.3     1  UNL1        0.2898
     40 O         141.6008  139.6590  168.1630 O.3     1  UNL1       -0.4628
     41 H         142.0734  143.3509  166.7407 H       1  UNL1        0.1565
@<TRIPOS>BOND
     1    25    26    1
     2    26    14    1
     3    14    15   ar
     4    15    16   ar
     5    16    17   ar
     6    17    18   ar
     7    18    19   ar
     8    19    20   ar
     9    20    21    1
    10    20    22   ar
    11    22    13    1
    12    13     9    1
    13     9    10    2
    14    10    11    1
    15     9     1    1
    16     1     2    1
    17     2     3    1
    18     3     4    1
    19     4    27    1
    20    27    29    1
    21    29    30    1
    22    30    31   ar
    23    31    32   ar
    24    32    33   ar
    25    33    34   ar
    26    34    35   ar
    27    34    36    1
    28    36    37   am
    29    37    38    2
    30    37    39    1
    31    39    40    1
    32     4     5    1
    33     5     6    1
    34     4     7    1
    35     7     8    1
    36    22    23   ar
    37    23    24   ar
    38    24    14   ar
    39    23    17   ar
    40     6     1    1
    41     8     1    1
    42    35    30   ar
    43    40    33    1
    44    11    12    1
    45    27    28    1
    46    36    41    1
@<TRIPOS>MOLECULE
*****
 41 46 0 0 0
SMALL
GASTEIGER

@<TRIPOS>ATOM
      1 C         143.4089  140.4052  160.6599 C.3     1  UNL1        0.1272
      2 C         141.9180  140.4671  160.8134 C.3     1  UNL1        0.0342
      3 C         141.1870  139.3477  161.4935 C.3     1  UNL1        0.0197
      4 C         141.9468  138.1664  162.0201 C.3     1  UNL1        0.0701
      5 C         143.4376  138.1046  161.8666 C.3     1  UNL1        0.0197
      6 C         144.1687  139.2239  161.1864 C.3     1  UNL1        0.0342
      7 C         142.3910  138.7556  161.6547 C.3     1  UNL1        0.1566
      8 O         143.0520  139.7678  161.0397 O.3     1  UNL1       -0.3518
      9 C         144.1399  141.5246  159.9797 C.2     1  UNL1        0.1032
     10 N         144.2296  141.5616  158.4829 N.2     1  UNL1       -0.0926
     11 O         143.5883  140.4791  157.6662 O.2     1  UNL1       -0.4092
     12 H         143.6443  140.5022  156.7312 H       1  UNL1        0.3278
     13 C         144.7812  142.6070  160.7965 C.3     1  UNL1        0.0772
     14 C         141.0811  145.1366  161.1966 C.ar    1  UNL1        0.2250
     15 C         140.5428  145.4684  162.5568 C.ar    1  UNL1        0.0593
     16 C         141.2380  144.9570  163.7836 C.ar    1  UNL1        0.0254
     17 C         142.4714  144.1138  163.6503 C.ar    1  UNL1        0.0990
     18 N         143.1665  143.6025  164.8772 N.ar    1  UNL1       -0.2400
     19 C         144.4000  142.7592  164.7439 C.ar    1  UNL1        0.1281
     20 C         144.9382  142.4274  163.3836 C.ar    1  UNL1        0.1570
     21 F         146.1716  141.5843  163.2503 F       1  UNL1       -0.2028
     22 C         144.2430  142.9388  162.1567 C.ar    1  UNL1        0.0318
     23 C         143.0096  143.7820  162.2901 C.ar    1  UNL1        0.1005
     24 N         142.3144  144.2934  161.0632 N.ar    1  UNL1       -0.2104
     25 C         140.1594  144.7356  158.8008 C.3     1  UNL1        0.2542
     26 O         140.3859  145.6480  159.9697 O.3     1  UNL1       -0.4561
     27 N         141.2158  137.0470  162.7002 N.3     1  UNL1       -0.2926
     28 H         141.6093  136.1772  162.3410 H       1  UNL1        0.1236
     29 C         141.2288  136.9427  164.1966 C.3     1  UNL1        0.1152
     30 C         140.9363  138.1515  165.0352 C.ar    1  UNL1        0.0765
     31 C         139.5277  138.6501  165.1666 C.ar    1  UNL1        0.0193
     32 C         139.2352  139.8589  166.0053 C.ar    1  UNL1        0.0411
     33 C         140.3513  140.5690  166.7125 C.ar    1  UNL1        0.1708
     34 C         141.7598  140.0704  166.5810 C.ar    1  UNL1        0.1682
     35 N         142.0523  138.8616  165.7424 N.ar    1  UNL1       -0.2304
     36 N         142.8760  140.7805  167.2882 N.am    1  UNL1       -0.2639
     37 C         142.5835  141.9893  168.1269 C.2     1  UNL1        0.2718
     38 O         143.6995  142.6994  168.8340 O.2     1  UNL1       -0.2707
     39 C         141.1749  142.4879  168.2583 C.3     1  UNL1        0.2898
     40 O         140.0588  141.7778  167.5511 O.3     1  UNL1       -0.4628
     41 H         143.8005  140.4532  167.2020 H       1  UNL1        0.1565
@<TRIPOS>BOND
     1    25    26    1
     2    26    14    1
     3    14    15   ar
     4    15    16   ar
     5    16    17   ar
     6    17    18   ar
     7    18    19   ar
     8    19    20   ar
     9    20    21    1
    10    20    22   ar
    11    22    13    1
    12    13     9    1
    13     9    10    2
    14    10    11    1
    15     9     1    1
    16     1     2    1
    17     2     3    1
    18     3     4    1
    19     4    27    1
    20    27    29    1
    21    29    30    1
    22    30    31   ar
    23    31    32   ar
    24    32    33   ar
    25    33    34   ar
    26    34    35   ar
    27    34    36    1
    28    36    37   am
    29    37    38    2
    30    37    39    1
    31    39    40    1
    32     4     5    1
    33     5     6    1
    34     4     7    1
    35     7     8    1
    36    22    23   ar
    37    23    24   ar
    38    24    14   ar
    39    23    17   ar
    40     6     1    1
    41     8     1    1
    42    35    30   ar
    43    40    33    1
    44    11    12    1
    45    27    28    1
    46    36    41    1
@<TRIPOS>MOLECULE
*****
 41 46 0 0 0
SMALL
GASTEIGER

@<TRIPOS>ATOM
      1 C         140.0954  143.6438  162.5926 C.3     1  UNL1        0.1272
      2 C         139.7197  142.4112  161.8247 C.3     1  UNL1        0.0342
      3 C         138.9123  141.3332  162.4851 C.3     1  UNL1        0.0197
      4 C         138.4805  141.4879  163.9133 C.3     1  UNL1        0.0701
      5 C         138.8562  142.7205  164.6811 C.3     1  UNL1        0.0197
      6 C         139.6637  143.7984  164.0208 C.3     1  UNL1        0.0342
      7 C         138.9218  142.1054  163.5941 C.3     1  UNL1        0.1566
      8 O         139.6520  143.0801  162.9970 O.3     1  UNL1       -0.3518
      9 C         140.9029  144.7217  161.9323 C.2     1  UNL1        0.1032
     10 N         140.2327  145.9775  161.4590 N.2     1  UNL1       -0.0926
     11 O         138.7551  146.1552  161.6462 O.2     1  UNL1       -0.4092
     12 H         138.3365  146.9396  161.3505 H       1  UNL1        0.3278
     13 C         142.3805  144.5439  161.7452 C.3     1  UNL1        0.0772
     14 C         143.4233  140.2524  160.8816 C.ar    1  UNL1        0.2250
     15 C         144.2151  139.4580  161.8775 C.ar    1  UNL1        0.0593
     16 C         144.6594  140.0940  163.1612 C.ar    1  UNL1        0.0254
     17 C         144.3118  141.5245  163.4492 C.ar    1  UNL1        0.0990
     18 N         144.7560  142.1605  164.7329 N.ar    1  UNL1       -0.2400
     19 C         144.4084  143.5911  165.0208 C.ar    1  UNL1        0.1281
     20 C         143.6166  144.3855  164.0249 C.ar    1  UNL1        0.1570
     21 F         143.2690  145.8160  164.3128 F       1  UNL1       -0.2028
     22 C         143.1724  143.7495  162.7411 C.ar    1  UNL1        0.0318
     23 C         143.5200  142.3190  162.4532 C.ar    1  UNL1        0.1005
     24 N         143.0757  141.6829  161.1694 N.ar    1  UNL1       -0.2104
     25 C         141.9374  138.5372  159.6166 C.3     1  UNL1        0.2542
     26 O         142.9791  139.6164  159.5978 O.3     1  UNL1       -0.4561
     27 N         137.6731  140.4099  164.5737 N.3     1  UNL1       -0.2926
     28 H         137.0769  140.0047  163.8520 H       1  UNL1        0.1236
     29 C         138.3641  139.2670  165.2566 C.3     1  UNL1        0.1152
     30 C         139.4683  139.5354  166.2358 C.ar    1  UNL1        0.0765
     31 C         140.8795  139.1556  165.8975 C.ar    1  UNL1        0.0193
     32 C         141.9836  139.4240  166.8767 C.ar    1  UNL1        0.0411
     33 C         141.6766  140.0722  168.1942 C.ar    1  UNL1        0.1708
     34 C         140.2654  140.4519  168.5324 C.ar    1  UNL1        0.1682
     35 N         139.1613  140.1836  167.5532 N.ar    1  UNL1       -0.2304
     36 N         139.9584  141.1001  169.8499 N.am    1  UNL1       -0.2639
     37 C         141.0625  141.3685  170.8291 C.2     1  UNL1        0.2718
     38 O         140.7555  142.0166  172.1465 O.2     1  UNL1       -0.2707
     39 C         142.4737  140.9887  170.4908 C.3     1  UNL1        0.2898
     40 O         142.7807  140.3406  169.1734 O.3     1  UNL1       -0.4628
     41 H         139.0322  141.3494  170.0719 H       1  UNL1        0.1565
@<TRIPOS>BOND
     1    25    26    1
     2    26    14    1
     3    14    15   ar
     4    15    16   ar
     5    16    17   ar
     6    17    18   ar
     7    18    19   ar
     8    19    20   ar
     9    20    21    1
    10    20    22   ar
    11    22    13    1
    12    13     9    1
    13     9    10    2
    14    10    11    1
    15     9     1    1
    16     1     2    1
    17     2     3    1
    18     3     4    1
    19     4    27    1
    20    27    29    1
    21    29    30    1
    22    30    31   ar
    23    31    32   ar
    24    32    33   ar
    25    33    34   ar
    26    34    35   ar
    27    34    36    1
    28    36    37   am
    29    37    38    2
    30    37    39    1
    31    39    40    1
    32     4     5    1
    33     5     6    1
    34     4     7    1
    35     7     8    1
    36    22    23   ar
    37    23    24   ar
    38    24    14   ar
    39    23    17   ar
    40     6     1    1
    41     8     1    1
    42    35    30   ar
    43    40    33    1
    44    11    12    1
    45    27    28    1
    46    36    41    1
@<TRIPOS>MOLECULE
*****
 41 46 0 0 0
SMALL
GASTEIGER

@<TRIPOS>ATOM
      1 C         140.0146  143.4961  164.5208 C.3     1  UNL1        0.1272
      2 C         140.5933  142.6245  165.5958 C.3     1  UNL1        0.0342
      3 C         142.0801  142.5451  165.7775 C.3     1  UNL1        0.0197
      4 C         142.9882  143.3373  164.8842 C.3     1  UNL1        0.0701
      5 C         142.4095  144.2088  163.8093 C.3     1  UNL1        0.0197
      6 C         140.9227  144.2882  163.6276 C.3     1  UNL1        0.0342
      7 C         142.1800  143.4131  164.7465 C.3     1  UNL1        0.1566
      8 O         140.8355  143.4849  164.5822 O.3     1  UNL1       -0.3518
      9 C         138.5277  143.5755  164.3391 C.2     1  UNL1        0.1032
     10 N         137.7324  144.5937  165.1010 N.2     1  UNL1       -0.0926
     11 O         138.4238  145.5326  166.0446 O.2     1  UNL1       -0.4092
     12 H         137.9270  146.1686  166.5205 H       1  UNL1        0.3278
     13 C         137.8363  142.6366  163.3954 C.3     1  UNL1        0.0772
     14 C         138.4383  138.8407  165.7361 C.ar    1  UNL1        0.2250
     15 C         139.1944  137.6967  165.1282 C.ar    1  UNL1        0.0593
     16 C         139.7498  137.8179  163.7401 C.ar    1  UNL1        0.0254
     17 C         139.5491  139.0832  162.9598 C.ar    1  UNL1        0.0990
     18 N         140.1045  139.2045  161.5718 N.ar    1  UNL1       -0.2400
     19 C         139.9038  140.4698  160.7915 C.ar    1  UNL1        0.1281
     20 C         139.1477  141.6138  161.3994 C.ar    1  UNL1        0.1570
     21 F         138.9471  142.8791  160.6192 F       1  UNL1       -0.2028
     22 C         138.5923  141.4926  162.7875 C.ar    1  UNL1        0.0318
     23 C         138.7930  140.2273  163.5677 C.ar    1  UNL1        0.1005
     24 N         138.2376  140.1060  164.9559 N.ar    1  UNL1       -0.2104
     25 C         136.9233  137.6148  167.4542 C.3     1  UNL1        0.2542
     26 O         137.8829  138.7195  167.1241 O.3     1  UNL1       -0.4561
     27 N         144.4751  143.2579  165.0659 N.3     1  UNL1       -0.2926
     28 H         144.6379  142.8203  165.9728 H       1  UNL1        0.1236
     29 C         145.3138  142.5139  164.0693 C.3     1  UNL1        0.1152
     30 C         144.7671  141.2920  163.3926 C.ar    1  UNL1        0.0765
     31 C         144.4957  140.0509  164.1903 C.ar    1  UNL1        0.0193
     32 C         143.9490  138.8290  163.5136 C.ar    1  UNL1        0.0411
     33 C         143.6737  138.8480  162.0392 C.ar    1  UNL1        0.1708
     34 C         143.9450  140.0890  161.2415 C.ar    1  UNL1        0.1682
     35 N         144.4917  141.3110  161.9182 N.ar    1  UNL1       -0.2304
     36 N         143.6697  140.1081  159.7671 N.am    1  UNL1       -0.2639
     37 C         143.1230  138.8861  159.0904 C.2     1  UNL1        0.2718
     38 O         142.8476  138.9052  157.6160 O.2     1  UNL1       -0.2707
     39 C         142.8516  137.6451  159.8881 C.3     1  UNL1        0.2898
     40 O         143.1270  137.6261  161.3625 O.3     1  UNL1       -0.4628
     41 H         143.8478  140.9226  159.2435 H       1  UNL1        0.1565
@<TRIPOS>BOND
     1    25    26    1
     2    26    14    1
     3    14    15   ar
     4    15    16   ar
     5    16    17   ar
     6    17    18   ar
     7    18    19   ar
     8    19    20   ar
     9    20    21    1
    10    20    22   ar
    11    22    13    1
    12    13     9    1
    13     9    10    2
    14    10    11    1
    15     9     1    1
    16     1     2    1
    17     2     3    1
    18     3     4    1
    19     4    27    1
    20    27    29    1
    21    29    30    1
    22    30    31   ar
    23    31    32   ar
    24    32    33   ar
    25    33    34   ar
    26    34    35   ar
    27    34    36    1
    28    36    37   am
    29    37    38    2
    30    37    39    1
    31    39    40    1
    32     4     5    1
    33     5     6    1
    34     4     7    1
    35     7     8    1
    36    22    23   ar
    37    23    24   ar
    38    24    14   ar
    39    23    17   ar
    40     6     1    1
    41     8     1    1
    42    35    30   ar
    43    40    33    1
    44    11    12    1
    45    27    28    1
    46    36    41    1
@<TRIPOS>MOLECULE
*****
 41 46 0 0 0
SMALL
GASTEIGER

@<TRIPOS>ATOM
      1 C         140.4532  144.3808  162.4910 C.3     1  UNL1        0.1272
      2 C         140.9817  143.4415  161.4476 C.3     1  UNL1        0.0342
      3 C         142.4467  143.1231  161.3981 C.3     1  UNL1        0.0197
      4 C         143.3831  143.7440  162.3920 C.3     1  UNL1        0.0701
      5 C         142.8546  144.6831  163.4353 C.3     1  UNL1        0.0197
      6 C         141.3896  145.0015  163.4848 C.3     1  UNL1        0.0342
      7 C         142.5884  143.9487  162.4587 C.3     1  UNL1        0.1566
      8 O         141.2637  144.2366  162.5034 O.3     1  UNL1       -0.3518
      9 C         138.9882  144.6992  162.5405 C.2     1  UNL1        0.1032
     10 N         138.4700  145.9488  161.8927 N.2     1  UNL1       -0.0926
     11 O         139.4167  146.8801  161.1954 O.2     1  UNL1       -0.4092
     12 H         139.0931  147.6608  160.7907 H       1  UNL1        0.3278
     13 C         138.0414  143.7678  163.2379 C.3     1  UNL1        0.0772
     14 C         137.8069  139.8413  161.0521 C.ar    1  UNL1        0.2250
     15 C         138.3250  138.5909  161.6987 C.ar    1  UNL1        0.0593
     16 C         138.9212  138.6493  163.0739 C.ar    1  UNL1        0.0254
     17 C         138.9994  139.9582  163.8025 C.ar    1  UNL1        0.0990
     18 N         139.5956  140.0166  165.1777 N.ar    1  UNL1       -0.2400
     19 C         139.6737  141.3254  165.9063 C.ar    1  UNL1        0.1281
     20 C         139.1557  142.5758  165.2597 C.ar    1  UNL1        0.1570
     21 F         139.2338  143.8847  165.9883 F       1  UNL1       -0.2028
     22 C         138.5594  142.5174  163.8845 C.ar    1  UNL1        0.0318
     23 C         138.4813  141.2086  163.1559 C.ar    1  UNL1        0.1005
     24 N         137.8851  141.1501  161.7807 N.ar    1  UNL1       -0.2104
     25 C         137.8097  140.5918  158.5648 C.3     1  UNL1        0.2542
     26 O         137.2107  139.7829  159.6770 O.3     1  UNL1       -0.4561
     27 N         144.8481  143.4255  162.3425 N.3     1  UNL1       -0.2926
     28 H         145.3218  144.1300  162.9080 H       1  UNL1        0.1236
     29 C         145.3415  142.0893  162.8128 C.3     1  UNL1        0.1152
     30 C         144.5974  141.3501  163.8852 C.ar    1  UNL1        0.0765
     31 C         144.2593  139.9004  163.7003 C.ar    1  UNL1        0.0193
     32 C         143.5153  139.1611  164.7726 C.ar    1  UNL1        0.0411
     33 C         143.1093  139.8716  166.0298 C.ar    1  UNL1        0.1708
     34 C         143.4474  141.3212  166.2147 C.ar    1  UNL1        0.1682
     35 N         144.1915  142.0605  165.1423 N.ar    1  UNL1       -0.2304
     36 N         143.0415  142.0317  167.4719 N.am    1  UNL1       -0.2639
     37 C         142.2974  141.2925  168.5442 C.2     1  UNL1        0.2718
     38 O         141.8915  142.0029  169.8014 O.2     1  UNL1       -0.2707
     39 C         141.9593  139.8428  168.3593 C.3     1  UNL1        0.2898
     40 O         142.3653  139.1324  167.1022 O.3     1  UNL1       -0.4628
     41 H         143.2634  142.9832  167.5932 H       1  UNL1        0.1565
@<TRIPOS>BOND
     1    25    26    1
     2    26    14    1
     3    14    15   ar
     4    15    16   ar
     5    16    17   ar
     6    17    18   ar
     7    18    19   ar
     8    19    20   ar
     9    20    21    1
    10    20    22   ar
    11    22    13    1
    12    13     9    1
    13     9    10    2
    14    10    11    1
    15     9     1    1
    16     1     2    1
    17     2     3    1
    18     3     4    1
    19     4    27    1
    20    27    29    1
    21    29    30    1
    22    30    31   ar
    23    31    32   ar
    24    32    33   ar
    25    33    34   ar
    26    34    35   ar
    27    34    36    1
    28    36    37   am
    29    37    38    2
    30    37    39    1
    31    39    40    1
    32     4     5    1
    33     5     6    1
    34     4     7    1
    35     7     8    1
    36    22    23   ar
    37    23    24   ar
    38    24    14   ar
    39    23    17   ar
    40     6     1    1
    41     8     1    1
    42    35    30   ar
    43    40    33    1
    44    11    12    1
    45    27    28    1
    46    36    41    1
