@<TRIPOS>MOLECULE
*****
 31 34 0 0 0
SMALL
GASTEIGER

@<TRIPOS>ATOM
      1 C         138.7446  139.3713  160.7336 C.3     1  UNL1        0.0722
      2 N         139.4540  140.4826  165.0361 N.pl3   1  UNL1       -0.3075
      3 C         139.7355  141.4765  163.9486 C.3     1  UNL1        0.0908
      4 C         139.4991  141.1061  162.5144 C.3     1  UNL1        0.0229
      5 C         138.9810  139.7417  162.1678 C.3     1  UNL1        0.0194
      6 C         138.6995  138.7478  163.2553 C.3     1  UNL1        0.0229
      7 C         138.9360  139.1182  164.6895 C.3     1  UNL1        0.0908
      8 C         140.1634  141.5938  169.3387 C.ar    1  UNL1        0.0141
      9 C         139.5251  140.2796  168.9989 C.ar    1  UNL1        0.0024
     10 C         139.2886  139.9092  167.5647 C.ar    1  UNL1        0.0146
     11 C         139.6905  140.8530  166.4703 C.ar    1  UNL1        0.0478
     12 C         140.3287  142.1672  166.8101 C.ar    1  UNL1        0.0146
     13 C         140.5652  142.5376  168.2442 C.ar    1  UNL1        0.0024
     14 O         139.5087  142.9659  171.4455 O.co2   1  UNL1       -0.5446
     15 C         140.3999  141.9642  170.7728 C.2     1  UNL1        0.0729
     16 O         141.5275  141.3330  171.5344 O.co2   1  UNL1       -0.5446
     17 N         139.8796  138.8680  159.8920 N.3     1  UNL1       -0.2724
     18 C         141.2182  138.6069  160.5167 C.3     1  UNL1        0.0758
     19 C         142.3532  138.1036  159.6751 C.3     1  UNL1        0.0609
     20 C         142.1498  137.8614  158.2088 C.3     1  UNL1        0.1687
     21 C         140.8113  138.1225  157.5841 C.3     1  UNL1        0.0609
     22 C         139.6762  138.6258  158.4257 C.3     1  UNL1        0.0758
     23 O         143.2850  137.3581  157.3672 O.3     1  UNL1       -0.4790
     24 C         143.1074  136.1289  156.5261 C.ar    1  UNL1        0.1393
     25 C         142.9071  136.2562  155.0449 C.ar    1  UNL1        0.0378
     26 C         142.7296  135.0271  154.2038 C.ar    1  UNL1        0.0154
     27 C         142.7523  133.6705  154.8437 C.ar    1  UNL1        0.0684
     28 CL        142.5747  132.4414  154.0025 Cl      1  UNL1       -0.0814
     29 C         142.9525  133.5433  156.3248 C.ar    1  UNL1        0.0712
     30 CL        142.9752  132.1868  156.9647 Cl      1  UNL1       -0.0813
     31 C         143.1301  134.7725  157.1660 C.ar    1  UNL1        0.0491
@<TRIPOS>UNITY_ATOM_ATTR
14 1
charge -1
@<TRIPOS>BOND
     1    14    15   ar
     2    15    16   ar
     3    15     8    1
     4     8     9   ar
     5     9    10   ar
     6    10    11   ar
     7    11     2    1
     8     2     3    1
     9     3     4    1
    10     4     5    1
    11     5     1    1
    12     1    17    1
    13    17    18    1
    14    18    19    1
    15    19    20    1
    16    20    23    1
    17    23    24    1
    18    24    25   ar
    19    25    26   ar
    20    26    27   ar
    21    27    28    1
    22    27    29   ar
    23    29    30    1
    24    29    31   ar
    25    20    21    1
    26    21    22    1
    27     5     6    1
    28     6     7    1
    29    11    12   ar
    30    12    13   ar
    31    13     8   ar
    32     7     2    1
    33    22    17    1
    34    31    24   ar
@<TRIPOS>MOLECULE
*****
 31 34 0 0 0
SMALL
GASTEIGER

@<TRIPOS>ATOM
      1 C         139.0852  139.4520  159.0938 C.3     1  UNL1        0.0722
      2 N         139.1986  139.7161  163.5846 N.pl3   1  UNL1       -0.3075
      3 C         139.8019  140.8094  162.7536 C.3     1  UNL1        0.0908
      4 C         139.7641  140.7213  161.2567 C.3     1  UNL1        0.0229
      5 C         139.1230  139.5400  160.5908 C.3     1  UNL1        0.0194
      6 C         138.5197  138.4468  161.4218 C.3     1  UNL1        0.0229
      7 C         138.5575  138.5348  162.9188 C.3     1  UNL1        0.0908
      8 C         139.3120  139.9802  168.0755 C.ar    1  UNL1        0.0141
      9 C         138.2663  139.1438  167.3995 C.ar    1  UNL1        0.0024
     10 C         138.2285  139.0558  165.9026 C.ar    1  UNL1        0.0146
     11 C         139.2364  139.8041  165.0816 C.ar    1  UNL1        0.0478
     12 C         140.2821  140.6405  165.7575 C.ar    1  UNL1        0.0146
     13 C         140.3199  140.7285  167.2545 C.ar    1  UNL1        0.0024
     14 O         138.0838  139.9264  170.3642 O.co2   1  UNL1       -0.5446
     15 C         139.3498  140.0682  169.5724 C.2     1  UNL1        0.0729
     16 O         140.6536  140.2979  170.2775 O.co2   1  UNL1       -0.5446
     17 N         140.0901  138.6088  158.3665 N.3     1  UNL1       -0.2724
     18 C         141.4649  138.4214  158.9364 C.3     1  UNL1        0.0758
     19 C         142.4698  137.5782  158.2091 C.3     1  UNL1        0.0609
     20 C         142.0999  136.9222  156.9119 C.3     1  UNL1        0.1687
     21 C         140.7252  137.1095  156.3419 C.3     1  UNL1        0.0609
     22 C         139.7202  137.9528  157.0692 C.3     1  UNL1        0.0758
     23 O         143.1049  136.0789  156.1845 O.3     1  UNL1       -0.4790
     24 C         143.0653  134.5851  156.3149 C.ar    1  UNL1        0.1393
     25 C         141.9922  133.7999  155.6207 C.ar    1  UNL1        0.0378
     26 C         141.9525  132.3061  155.7510 C.ar    1  UNL1        0.0154
     27 C         142.9860  131.5975  156.5756 C.ar    1  UNL1        0.0684
     28 CL        142.9464  130.1037  156.7060 Cl      1  UNL1       -0.0814
     29 C         144.0591  132.3827  157.2698 C.ar    1  UNL1        0.0712
     30 CL        145.0925  131.6742  158.0944 Cl      1  UNL1       -0.0813
     31 C         144.0987  133.8766  157.1394 C.ar    1  UNL1        0.0491
@<TRIPOS>UNITY_ATOM_ATTR
14 1
charge -1
@<TRIPOS>BOND
     1    14    15   ar
     2    15    16   ar
     3    15     8    1
     4     8     9   ar
     5     9    10   ar
     6    10    11   ar
     7    11     2    1
     8     2     3    1
     9     3     4    1
    10     4     5    1
    11     5     1    1
    12     1    17    1
    13    17    18    1
    14    18    19    1
    15    19    20    1
    16    20    23    1
    17    23    24    1
    18    24    25   ar
    19    25    26   ar
    20    26    27   ar
    21    27    28    1
    22    27    29   ar
    23    29    30    1
    24    29    31   ar
    25    20    21    1
    26    21    22    1
    27     5     6    1
    28     6     7    1
    29    11    12   ar
    30    12    13   ar
    31    13     8   ar
    32     7     2    1
    33    22    17    1
    34    31    24   ar
@<TRIPOS>MOLECULE
*****
 31 34 0 0 0
SMALL
GASTEIGER

@<TRIPOS>ATOM
      1 C         139.2018  138.0817  161.3132 C.3     1  UNL1        0.0722
      2 N         139.6475  139.9629  165.3767 N.pl3   1  UNL1       -0.3075
      3 C         140.0583  140.7217  164.1498 C.3     1  UNL1        0.0908
      4 C         139.9097  140.0947  162.7953 C.3     1  UNL1        0.0229
      5 C         139.3504  138.7088  162.6677 C.3     1  UNL1        0.0194
      6 C         138.9396  137.9499  163.8947 C.3     1  UNL1        0.0229
      7 C         139.0881  138.5770  165.2492 C.3     1  UNL1        0.0908
      8 C         140.0933  141.8442  169.4402 C.ar    1  UNL1        0.0141
      9 C         140.5619  142.5777  168.2187 C.ar    1  UNL1        0.0024
     10 C         140.4134  141.9506  166.8642 C.ar    1  UNL1        0.0146
     11 C         139.7961  140.5900  166.7312 C.ar    1  UNL1        0.0478
     12 C         139.3275  139.8565  167.9528 C.ar    1  UNL1        0.0146
     13 C         139.4761  140.4836  169.3073 C.ar    1  UNL1        0.0024
     14 O         141.4523  142.1751  171.6297 O.co2   1  UNL1       -0.5446
     15 C         140.2419  142.4713  170.7947 C.2     1  UNL1        0.0729
     16 O         139.1801  143.3946  171.3143 O.co2   1  UNL1       -0.5446
     17 N         140.0177  138.5855  160.1599 N.3     1  UNL1       -0.2724
     18 C         139.4006  139.5081  159.1509 C.3     1  UNL1        0.0758
     19 C         140.2165  140.0120  157.9975 C.3     1  UNL1        0.0609
     20 C         141.6497  139.5933  157.8531 C.3     1  UNL1        0.1687
     21 C         142.2668  138.6708  158.8620 C.3     1  UNL1        0.0609
     22 C         141.4508  138.1668  160.0154 C.3     1  UNL1        0.0758
     23 O         142.4656  140.0972  156.6997 O.3     1  UNL1       -0.4790
     24 C         143.7142  140.8889  156.9534 C.ar    1  UNL1        0.1393
     25 C         143.7793  141.8348  158.1157 C.ar    1  UNL1        0.0378
     26 C         145.0278  142.6264  158.3694 C.ar    1  UNL1        0.0154
     27 C         146.2114  142.4721  157.4608 C.ar    1  UNL1        0.0684
     28 CL        147.4599  143.2637  157.7146 Cl      1  UNL1       -0.0814
     29 C         146.1463  141.5262  156.2985 C.ar    1  UNL1        0.0712
     30 CL        147.3297  141.3719  155.3899 Cl      1  UNL1       -0.0813
     31 C         144.8976  140.7345  156.0448 C.ar    1  UNL1        0.0491
@<TRIPOS>UNITY_ATOM_ATTR
14 1
charge -1
@<TRIPOS>BOND
     1    14    15   ar
     2    15    16   ar
     3    15     8    1
     4     8     9   ar
     5     9    10   ar
     6    10    11   ar
     7    11     2    1
     8     2     3    1
     9     3     4    1
    10     4     5    1
    11     5     1    1
    12     1    17    1
    13    17    18    1
    14    18    19    1
    15    19    20    1
    16    20    23    1
    17    23    24    1
    18    24    25   ar
    19    25    26   ar
    20    26    27   ar
    21    27    28    1
    22    27    29   ar
    23    29    30    1
    24    29    31   ar
    25    20    21    1
    26    21    22    1
    27     5     6    1
    28     6     7    1
    29    11    12   ar
    30    12    13   ar
    31    13     8   ar
    32     7     2    1
    33    22    17    1
    34    31    24   ar
@<TRIPOS>MOLECULE
*****
 31 34 0 0 0
SMALL
GASTEIGER

@<TRIPOS>ATOM
      1 C         138.9438  138.0985  161.3686 C.3     1  UNL1        0.0722
      2 N         139.4768  139.9634  165.4291 N.pl3   1  UNL1       -0.3075
      3 C         139.2383  138.4875  165.3071 C.3     1  UNL1        0.0908
      4 C         139.0606  137.8659  163.9536 C.3     1  UNL1        0.0229
      5 C         139.1214  138.7201  162.7221 C.3     1  UNL1        0.0194
      6 C         139.3600  140.1960  162.8441 C.3     1  UNL1        0.0229
      7 C         139.5376  140.8176  164.1976 C.3     1  UNL1        0.0908
      8 C         140.0098  141.8283  169.4897 C.ar    1  UNL1        0.0141
      9 C         140.4957  142.5456  168.2652 C.ar    1  UNL1        0.0024
     10 C         140.3180  141.9240  166.9117 C.ar    1  UNL1        0.0146
     11 C         139.6545  140.5850  166.7826 C.ar    1  UNL1        0.0478
     12 C         139.1686  139.8676  168.0070 C.ar    1  UNL1        0.0146
     13 C         139.3462  140.4893  169.3606 C.ar    1  UNL1        0.0024
     14 O         141.3944  142.1166  171.6690 O.co2   1  UNL1       -0.5446
     15 C         140.1875  142.4499  170.8432 C.2     1  UNL1        0.0729
     16 O         139.1582  143.4049  171.3709 O.co2   1  UNL1       -0.5446
     17 N         139.2675  138.8856  160.1334 N.3     1  UNL1       -0.2724
     18 C         138.2556  139.8339  159.5617 C.3     1  UNL1        0.0758
     19 C         138.5793  140.6210  158.3265 C.3     1  UNL1        0.0609
     20 C         139.9149  140.4598  157.6630 C.3     1  UNL1        0.1687
     21 C         140.9268  139.5116  158.2347 C.3     1  UNL1        0.0609
     22 C         140.6031  138.7244  159.4699 C.3     1  UNL1        0.0758
     23 O         140.2386  141.2470  156.4278 O.3     1  UNL1       -0.4790
     24 C         140.0082  142.7289  156.4010 C.ar    1  UNL1        0.1393
     25 C         140.9273  143.6445  157.1539 C.ar    1  UNL1        0.0378
     26 C         140.6969  145.1265  157.1272 C.ar    1  UNL1        0.0154
     27 C         139.5474  145.6928  156.3474 C.ar    1  UNL1        0.0684
     28 CL        139.3170  147.1748  156.3206 Cl      1  UNL1       -0.0814
     29 C         138.6283  144.7772  155.5945 C.ar    1  UNL1        0.0712
     30 CL        137.4788  145.3435  154.8148 Cl      1  UNL1       -0.0813
     31 C         138.8587  143.2952  155.6213 C.ar    1  UNL1        0.0491
@<TRIPOS>UNITY_ATOM_ATTR
14 1
charge -1
@<TRIPOS>BOND
     1    14    15   ar
     2    15    16   ar
     3    15     8    1
     4     8     9   ar
     5     9    10   ar
     6    10    11   ar
     7    11     2    1
     8     2     3    1
     9     3     4    1
    10     4     5    1
    11     5     1    1
    12     1    17    1
    13    17    18    1
    14    18    19    1
    15    19    20    1
    16    20    23    1
    17    23    24    1
    18    24    25   ar
    19    25    26   ar
    20    26    27   ar
    21    27    28    1
    22    27    29   ar
    23    29    30    1
    24    29    31   ar
    25    20    21    1
    26    21    22    1
    27     5     6    1
    28     6     7    1
    29    11    12   ar
    30    12    13   ar
    31    13     8   ar
    32     7     2    1
    33    22    17    1
    34    31    24   ar
@<TRIPOS>MOLECULE
*****
 31 34 0 0 0
SMALL
GASTEIGER

@<TRIPOS>ATOM
      1 C         144.4213  140.2686  161.1672 C.3     1  UNL1        0.0722
      2 N         142.6646  140.3435  165.3095 N.pl3   1  UNL1       -0.3075
      3 C         144.0537  139.8206  165.0933 C.3     1  UNL1        0.0908
      4 C         144.6393  139.7956  163.7125 C.3     1  UNL1        0.0229
      5 C         143.8357  140.2935  162.5480 C.3     1  UNL1        0.0194
      6 C         142.4466  140.8165  162.7641 C.3     1  UNL1        0.0229
      7 C         141.8610  140.8415  164.1449 C.3     1  UNL1        0.0908
      8 C         140.9079  140.4185  169.4517 C.ar    1  UNL1        0.0141
      9 C         142.0673  139.5175  169.1449 C.ar    1  UNL1        0.0024
     10 C         142.6528  139.4926  167.7642 C.ar    1  UNL1        0.0146
     11 C         142.0790  140.3685  166.6902 C.ar    1  UNL1        0.0478
     12 C         140.9197  141.2694  166.9970 C.ar    1  UNL1        0.0146
     13 C         140.3341  141.2944  168.3778 C.ar    1  UNL1        0.0024
     14 O         139.4295  139.3279  171.2888 O.co2   1  UNL1       -0.5446
     15 C         140.3223  140.4434  170.8325 C.2     1  UNL1        0.0729
     16 O         140.6296  141.5840  171.7570 O.co2   1  UNL1       -0.5446
     17 N         143.7943  139.4189  160.1019 N.3     1  UNL1       -0.2724
     18 C         143.2809  138.0504  160.4395 C.3     1  UNL1        0.0758
     19 C         142.6540  137.2007  159.3742 C.3     1  UNL1        0.0609
     20 C         142.5404  137.7194  157.9713 C.3     1  UNL1        0.1687
     21 C         143.0537  139.0878  157.6337 C.3     1  UNL1        0.0609
     22 C         143.6807  139.9375  158.6990 C.3     1  UNL1        0.0758
     23 O         141.9134  136.8696  156.9060 O.3     1  UNL1       -0.4790
     24 C         142.5273  135.5508  156.5406 C.ar    1  UNL1        0.1393
     25 C         142.2171  134.9206  155.2152 C.ar    1  UNL1        0.0378
     26 C         142.8311  133.6017  154.8498 C.ar    1  UNL1        0.0154
     27 C         143.7554  132.9130  155.8098 C.ar    1  UNL1        0.0684
     28 CL        144.3694  131.5941  155.4444 Cl      1  UNL1       -0.0814
     29 C         144.0656  133.5432  157.1352 C.ar    1  UNL1        0.0712
     30 CL        144.9898  132.8545  158.0951 Cl      1  UNL1       -0.0813
     31 C         143.4515  134.8621  157.5006 C.ar    1  UNL1        0.0491
@<TRIPOS>UNITY_ATOM_ATTR
14 1
charge -1
@<TRIPOS>BOND
     1    14    15   ar
     2    15    16   ar
     3    15     8    1
     4     8     9   ar
     5     9    10   ar
     6    10    11   ar
     7    11     2    1
     8     2     3    1
     9     3     4    1
    10     4     5    1
    11     5     1    1
    12     1    17    1
    13    17    18    1
    14    18    19    1
    15    19    20    1
    16    20    23    1
    17    23    24    1
    18    24    25   ar
    19    25    26   ar
    20    26    27   ar
    21    27    28    1
    22    27    29   ar
    23    29    30    1
    24    29    31   ar
    25    20    21    1
    26    21    22    1
    27     5     6    1
    28     6     7    1
    29    11    12   ar
    30    12    13   ar
    31    13     8   ar
    32     7     2    1
    33    22    17    1
    34    31    24   ar
@<TRIPOS>MOLECULE
*****
 31 34 0 0 0
SMALL
GASTEIGER

@<TRIPOS>ATOM
      1 C         141.3239  138.0057  161.4004 C.3     1  UNL1        0.0722
      2 N         140.7815  140.0432  165.3759 N.pl3   1  UNL1       -0.3075
      3 C         142.1566  139.8748  164.8008 C.3     1  UNL1        0.0908
      4 C         142.3374  139.1956  163.4757 C.3     1  UNL1        0.0229
      5 C         141.1431  138.6849  162.7256 C.3     1  UNL1        0.0194
      6 C         139.7680  138.8532  163.3007 C.3     1  UNL1        0.0229
      7 C         139.5872  139.5324  164.6258 C.3     1  UNL1        0.0908
      8 C         140.2392  142.0806  169.3514 C.ar    1  UNL1        0.0141
      9 C         140.9711  142.7794  168.2442 C.ar    1  UNL1        0.0024
     10 C         141.1519  142.1003  166.9190 C.ar    1  UNL1        0.0146
     11 C         140.6008  140.7223  166.7011 C.ar    1  UNL1        0.0478
     12 C         139.8689  140.0235  167.8083 C.ar    1  UNL1        0.0146
     13 C         139.6881  140.7027  169.1335 C.ar    1  UNL1        0.0024
     14 O         139.5691  144.1766  170.7327 O.co2   1  UNL1       -0.5446
     15 C         140.0585  142.7598  170.6766 C.2     1  UNL1        0.0729
     16 O         140.3671  142.0222  171.9457 O.co2   1  UNL1       -0.5446
     17 N         141.7316  138.8042  160.1979 N.3     1  UNL1       -0.2724
     18 C         142.5478  138.1642  159.1141 C.3     1  UNL1        0.0758
     19 C         142.9556  138.9626  157.9116 C.3     1  UNL1        0.0609
     20 C         142.5472  140.4011  157.7927 C.3     1  UNL1        0.1687
     21 C         141.7311  141.0411  158.8764 C.3     1  UNL1        0.0609
     22 C         141.3233  140.2426  160.0790 C.3     1  UNL1        0.0758
     23 O         142.9550  141.1995  156.5901 O.3     1  UNL1       -0.4790
     24 C         144.4090  141.4134  156.2896 C.ar    1  UNL1        0.1393
     25 C         145.0076  140.8447  155.0373 C.ar    1  UNL1        0.0378
     26 C         146.4615  141.0585  154.7369 C.ar    1  UNL1        0.0154
     27 C         147.3169  141.8411  155.6887 C.ar    1  UNL1        0.0684
     28 CL        148.7708  142.0549  155.3882 Cl      1  UNL1       -0.0814
     29 C         146.7183  142.4098  156.9410 C.ar    1  UNL1        0.0712
     30 CL        147.5736  143.1923  157.8928 Cl      1  UNL1       -0.0813
     31 C         145.2643  142.1959  157.2415 C.ar    1  UNL1        0.0491
@<TRIPOS>UNITY_ATOM_ATTR
14 1
charge -1
@<TRIPOS>BOND
     1    14    15   ar
     2    15    16   ar
     3    15     8    1
     4     8     9   ar
     5     9    10   ar
     6    10    11   ar
     7    11     2    1
     8     2     3    1
     9     3     4    1
    10     4     5    1
    11     5     1    1
    12     1    17    1
    13    17    18    1
    14    18    19    1
    15    19    20    1
    16    20    23    1
    17    23    24    1
    18    24    25   ar
    19    25    26   ar
    20    26    27   ar
    21    27    28    1
    22    27    29   ar
    23    29    30    1
    24    29    31   ar
    25    20    21    1
    26    21    22    1
    27     5     6    1
    28     6     7    1
    29    11    12   ar
    30    12    13   ar
    31    13     8   ar
    32     7     2    1
    33    22    17    1
    34    31    24   ar
@<TRIPOS>MOLECULE
*****
 31 34 0 0 0
SMALL
GASTEIGER

@<TRIPOS>ATOM
      1 C         140.0427  139.3121  157.0786 C.3     1  UNL1        0.0722
      2 N         139.1527  139.0864  161.4839 N.pl3   1  UNL1       -0.3075
      3 C         140.3627  138.3967  160.9269 C.3     1  UNL1        0.0908
      4 C         140.6594  138.4719  159.4585 C.3     1  UNL1        0.0229
      5 C         139.7461  139.2368  158.5470 C.3     1  UNL1        0.0194
      6 C         138.5361  139.9265  159.1040 C.3     1  UNL1        0.0229
      7 C         138.2394  139.8513  160.5725 C.3     1  UNL1        0.0908
      8 C         138.2627  138.8607  165.8893 C.ar    1  UNL1        0.0141
      9 C         138.7280  137.6386  165.1545 C.ar    1  UNL1        0.0024
     10 C         139.0247  137.7138  163.6861 C.ar    1  UNL1        0.0146
     11 C         138.8561  139.0111  162.9524 C.ar    1  UNL1        0.0478
     12 C         138.3908  140.2333  163.6871 C.ar    1  UNL1        0.0146
     13 C         138.0941  140.1580  165.1555 C.ar    1  UNL1        0.0024
     14 O         138.8478  139.4998  168.3386 O.co2   1  UNL1       -0.5446
     15 C         137.9661  138.7855  167.3577 C.2     1  UNL1        0.0729
     16 O         136.7876  137.9959  167.8453 O.co2   1  UNL1       -0.5446
     17 N         140.6978  138.1543  156.3855 N.3     1  UNL1       -0.2724
     18 C         139.8676  137.1838  155.5988 C.3     1  UNL1        0.0758
     19 C         140.5226  136.0260  154.9057 C.3     1  UNL1        0.0609
     20 C         142.0079  135.8387  154.9993 C.3     1  UNL1        0.1687
     21 C         142.8382  136.8091  155.7859 C.3     1  UNL1        0.0609
     22 C         142.1831  137.9670  156.4790 C.3     1  UNL1        0.0758
     23 O         142.6630  134.6808  154.3061 O.3     1  UNL1       -0.4790
     24 C         142.8872  133.3943  155.0440 C.ar    1  UNL1        0.1393
     25 C         141.9829  132.2226  154.8005 C.ar    1  UNL1        0.0378
     26 C         142.2071  130.9361  155.5384 C.ar    1  UNL1        0.0154
     27 C         143.3357  130.8212  156.5198 C.ar    1  UNL1        0.0684
     28 CL        143.5599  129.5346  157.2577 Cl      1  UNL1       -0.0814
     29 C         144.2400  131.9929  156.7633 C.ar    1  UNL1        0.0712
     30 CL        145.3686  131.8780  157.7447 Cl      1  UNL1       -0.0813
     31 C         144.0158  133.2795  156.0254 C.ar    1  UNL1        0.0491
@<TRIPOS>UNITY_ATOM_ATTR
14 1
charge -1
@<TRIPOS>BOND
     1    14    15   ar
     2    15    16   ar
     3    15     8    1
     4     8     9   ar
     5     9    10   ar
     6    10    11   ar
     7    11     2    1
     8     2     3    1
     9     3     4    1
    10     4     5    1
    11     5     1    1
    12     1    17    1
    13    17    18    1
    14    18    19    1
    15    19    20    1
    16    20    23    1
    17    23    24    1
    18    24    25   ar
    19    25    26   ar
    20    26    27   ar
    21    27    28    1
    22    27    29   ar
    23    29    30    1
    24    29    31   ar
    25    20    21    1
    26    21    22    1
    27     5     6    1
    28     6     7    1
    29    11    12   ar
    30    12    13   ar
    31    13     8   ar
    32     7     2    1
    33    22    17    1
    34    31    24   ar
@<TRIPOS>MOLECULE
*****
 31 34 0 0 0
SMALL
GASTEIGER

@<TRIPOS>ATOM
      1 C         143.5787  143.2557  160.6714 C.3     1  UNL1        0.0722
      2 N         142.4962  142.7278  165.0073 N.pl3   1  UNL1       -0.3075
      3 C         143.3910  143.8569  164.5897 C.3     1  UNL1        0.0908
      4 C         143.7518  144.0329  163.1445 C.3     1  UNL1        0.0229
      5 C         143.2178  143.0797  162.1167 C.3     1  UNL1        0.0194
      6 C         142.3230  141.9506  162.5342 C.3     1  UNL1        0.0229
      7 C         141.9622  141.7747  163.9795 C.3     1  UNL1        0.0908
      8 C         141.4137  142.1999  169.3431 C.ar    1  UNL1        0.0141
      9 C         142.8495  142.1305  168.9147 C.ar    1  UNL1        0.0024
     10 C         143.2103  142.3065  167.4694 C.ar    1  UNL1        0.0146
     11 C         142.1353  142.5518  166.4525 C.ar    1  UNL1        0.0478
     12 C         140.6995  142.6212  166.8809 C.ar    1  UNL1        0.0146
     13 C         140.3387  142.4452  168.3262 C.ar    1  UNL1        0.0024
     14 O         141.8292  141.0674  171.6441 O.co2   1  UNL1       -0.5446
     15 C         141.0529  142.0239  170.7884 C.2     1  UNL1        0.0729
     16 O         139.9157  142.8044  171.3779 O.co2   1  UNL1       -0.5446
     17 N         142.5269  143.6543  159.6790 N.3     1  UNL1       -0.2724
     18 C         142.5478  143.0809  158.2930 C.3     1  UNL1        0.0758
     19 C         141.4961  143.4795  157.3006 C.3     1  UNL1        0.0609
     20 C         140.4235  144.4514  157.6940 C.3     1  UNL1        0.1687
     21 C         140.4026  145.0248  159.0799 C.3     1  UNL1        0.0609
     22 C         141.4543  144.6262  160.0724 C.3     1  UNL1        0.0758
     23 O         139.3717  144.8500  156.7015 O.3     1  UNL1       -0.4790
     24 C         139.5793  146.0542  155.8316 C.ar    1  UNL1        0.1393
     25 C         140.4505  145.9590  154.6143 C.ar    1  UNL1        0.0378
     26 C         140.6581  147.1632  153.7444 C.ar    1  UNL1        0.0154
     27 C         139.9944  148.4628  154.0919 C.ar    1  UNL1        0.0684
     28 CL        140.2019  149.6670  153.2220 Cl      1  UNL1       -0.0814
     29 C         139.1231  148.5580  155.3092 C.ar    1  UNL1        0.0712
     30 CL        138.4594  149.8575  155.6567 Cl      1  UNL1       -0.0813
     31 C         138.9156  147.3537  156.1791 C.ar    1  UNL1        0.0491
@<TRIPOS>UNITY_ATOM_ATTR
14 1
charge -1
@<TRIPOS>BOND
     1    14    15   ar
     2    15    16   ar
     3    15     8    1
     4     8     9   ar
     5     9    10   ar
     6    10    11   ar
     7    11     2    1
     8     2     3    1
     9     3     4    1
    10     4     5    1
    11     5     1    1
    12     1    17    1
    13    17    18    1
    14    18    19    1
    15    19    20    1
    16    20    23    1
    17    23    24    1
    18    24    25   ar
    19    25    26   ar
    20    26    27   ar
    21    27    28    1
    22    27    29   ar
    23    29    30    1
    24    29    31   ar
    25    20    21    1
    26    21    22    1
    27     5     6    1
    28     6     7    1
    29    11    12   ar
    30    12    13   ar
    31    13     8   ar
    32     7     2    1
    33    22    17    1
    34    31    24   ar
@<TRIPOS>MOLECULE
*****
 31 34 0 0 0
SMALL
GASTEIGER

@<TRIPOS>ATOM
      1 C         139.5348  139.5477  159.7882 C.3     1  UNL1        0.0722
      2 N         140.5164  139.6936  164.1774 N.pl3   1  UNL1       -0.3075
      3 C         140.8481  140.8607  163.2955 C.3     1  UNL1        0.0908
      4 C         140.5209  140.8120  161.8324 C.3     1  UNL1        0.0229
      5 C         139.8620  139.5963  161.2513 C.3     1  UNL1        0.0194
      6 C         139.5302  138.4292  162.1332 C.3     1  UNL1        0.0229
      7 C         139.8574  138.4779  163.5963 C.3     1  UNL1        0.0908
      8 C         141.4980  139.8396  168.5666 C.ar    1  UNL1        0.0141
      9 C         140.1043  140.1385  168.0994 C.ar    1  UNL1        0.0024
     10 C         139.7771  140.0899  166.6364 C.ar    1  UNL1        0.0146
     11 C         140.8436  139.7423  165.6405 C.ar    1  UNL1        0.0478
     12 C         142.2372  139.4433  166.1077 C.ar    1  UNL1        0.0146
     13 C         142.5644  139.4920  167.5708 C.ar    1  UNL1        0.0024
     14 O         143.1927  139.4972  170.5058 O.co2   1  UNL1       -0.5446
     15 C         141.8251  139.8882  170.0297 C.2     1  UNL1        0.0729
     16 O         140.7848  140.3280  171.0167 O.co2   1  UNL1       -0.5446
     17 N         140.3655  138.7106  158.8613 N.3     1  UNL1       -0.2724
     18 C         141.7936  138.4047  159.2038 C.3     1  UNL1        0.0758
     19 C         142.6243  137.5676  158.2769 C.3     1  UNL1        0.0609
     20 C         142.0272  137.0365  157.0076 C.3     1  UNL1        0.1687
     21 C         140.5992  137.3424  156.6651 C.3     1  UNL1        0.0609
     22 C         139.7684  138.1795  157.5920 C.3     1  UNL1        0.0758
     23 O         142.8580  136.1994  156.0806 O.3     1  UNL1       -0.4790
     24 C         142.8609  134.7058  156.2183 C.ar    1  UNL1        0.1393
     25 C         143.8709  134.0360  157.1022 C.ar    1  UNL1        0.0378
     26 C         143.8738  132.5424  157.2399 C.ar    1  UNL1        0.0154
     27 C         142.8665  131.7184  156.4937 C.ar    1  UNL1        0.0684
     28 CL        142.8694  130.2248  156.6314 Cl      1  UNL1       -0.0814
     29 C         141.8565  132.3882  155.6099 C.ar    1  UNL1        0.0712
     30 CL        140.8492  131.5644  154.8638 Cl      1  UNL1       -0.0813
     31 C         141.8536  133.8820  155.4722 C.ar    1  UNL1        0.0491
@<TRIPOS>UNITY_ATOM_ATTR
14 1
charge -1
@<TRIPOS>BOND
     1    14    15   ar
     2    15    16   ar
     3    15     8    1
     4     8     9   ar
     5     9    10   ar
     6    10    11   ar
     7    11     2    1
     8     2     3    1
     9     3     4    1
    10     4     5    1
    11     5     1    1
    12     1    17    1
    13    17    18    1
    14    18    19    1
    15    19    20    1
    16    20    23    1
    17    23    24    1
    18    24    25   ar
    19    25    26   ar
    20    26    27   ar
    21    27    28    1
    22    27    29   ar
    23    29    30    1
    24    29    31   ar
    25    20    21    1
    26    21    22    1
    27     5     6    1
    28     6     7    1
    29    11    12   ar
    30    12    13   ar
    31    13     8   ar
    32     7     2    1
    33    22    17    1
    34    31    24   ar
