@<TRIPOS>MOLECULE
*****
 36 40 0 0 0
SMALL
GASTEIGER

@<TRIPOS>ATOM
      1 C         141.7957  141.6205  167.9996 C.3     1  UNL1        0.0768
      2 N         141.3501  142.4492  166.8315 N.3     1  UNL1       -0.2724
      3 C         142.1090  142.6518  165.5535 C.3     1  UNL1        0.0721
      4 C         141.2952  143.5487  164.6684 C.3     1  UNL1        0.0187
      5 C         140.0334  143.9003  165.3992 C.3     1  UNL1        0.0178
      6 C         140.0673  143.2208  166.7361 C.3     1  UNL1        0.0721
      7 C         138.9312  144.7774  164.8837 C.3     1  UNL1        0.0077
      8 C         137.6825  144.1623  164.3248 C.3     1  UNL1        0.0459
      9 C         137.7768  143.1037  163.2662 C.ar    1  UNL1        0.0603
     10 C         137.5800  141.6615  163.6282 C.ar    1  UNL1        0.0145
     11 C         137.6742  140.6029  162.5697 C.ar    1  UNL1       -0.0003
     12 C         137.9652  140.9866  161.1491 C.ar    1  UNL1        0.0092
     13 C         138.1621  142.4289  160.7870 C.ar    1  UNL1        0.1240
     14 N         138.0678  143.4875  161.8457 N.ar    1  UNL1       -0.2356
     15 N         138.4531  142.8126  159.3665 N.pl3   1  UNL1       -0.3184
     16 C         138.5473  141.7541  158.3080 C.3     1  UNL1        0.0885
     17 C         138.3505  140.3118  158.6700 C.3     1  UNL1        0.0260
     18 C         138.0595  139.9281  160.0905 C.3     1  UNL1        0.0309
     19 H         138.5823  143.7593  159.1289 H       1  UNL1        0.1482
     20 C         141.1119  140.3198  168.3008 C.3     1  UNL1        0.0439
     21 C         140.3245  139.6213  167.2320 C.ar    1  UNL1       -0.0178
     22 C         138.8388  139.4702  167.3727 C.ar    1  UNL1       -0.0040
     23 C         138.0514  138.7718  166.3040 C.ar    1  UNL1        0.0028
     24 C         138.7498  138.2245  165.0945 C.ar    1  UNL1        0.0369
     25 C         140.2355  138.3756  164.9538 C.ar    1  UNL1        0.1382
     26 C         141.0228  139.0740  166.0226 C.ar    1  UNL1        0.0327
     27 O         140.9338  137.8283  163.7443 O.3     1  UNL1       -0.4765
     28 C         141.2037  138.7181  162.5674 C.3     1  UNL1        0.1978
     29 C         141.3943  138.2699  161.1487 C.3     1  UNL1        0.0782
     30 C         141.6387  139.4871  160.3068 C.3     1  UNL1        0.1461
     31 O         141.5991  140.6876  161.2053 O.3     1  UNL1       -0.3498
     32 C         141.3302  140.2123  162.6024 C.3     1  UNL1        0.1855
     33 C         141.2156  139.7176  169.6707 C.3     1  UNL1        0.0474
     34 O         138.9030  139.5963  170.8487 O.co2   1  UNL1       -0.5492
     35 C         140.2873  140.1672  170.7598 C.2     1  UNL1        0.0507
     36 O         140.7434  141.1877  171.7601 O.co2   1  UNL1       -0.5492
@<TRIPOS>UNITY_ATOM_ATTR
34 1
charge -1
@<TRIPOS>BOND
     1    34    35   ar
     2    35    36   ar
     3    35    33    1
     4    20    33    1
     5    20     1    1
     6     1     2    1
     7     2     3    1
     8     3     4    1
     9     4     5    1
    10     5     7    1
    11     7     8    1
    12     8     9    1
    13     9    10   ar
    14    10    11   ar
    15    11    12   ar
    16    12    13   ar
    17    13    14   ar
    18    13    15    1
    19    15    16    1
    20    16    17    1
    21    17    18    1
    22     5     6    1
    23    20    21    1
    24    21    22   ar
    25    22    23   ar
    26    23    24   ar
    27    24    25   ar
    28    25    27    1
    29    28    27    1
    30    28    29    1
    31    29    30    1
    32    30    31    1
    33    31    32    1
    34    25    26   ar
    35     6     2    1
    36    26    21   ar
    37    14     9   ar
    38    32    28    1
    39    18    12    1
    40    15    19    1
@<TRIPOS>MOLECULE
*****
 36 40 0 0 0
SMALL
GASTEIGER

@<TRIPOS>ATOM
      1 C         138.2174  140.2242  165.0996 C.3     1  UNL1        0.0768
      2 N         138.1984  141.4006  164.1693 N.3     1  UNL1       -0.2724
      3 C         137.5468  141.4463  162.8188 C.3     1  UNL1        0.0721
      4 C         137.7733  142.8119  162.2409 C.3     1  UNL1        0.0187
      5 C         138.5648  143.6101  163.2341 C.3     1  UNL1        0.0178
      6 C         138.8275  142.7379  164.4258 C.3     1  UNL1        0.0721
      7 C         139.0146  145.0310  163.0651 C.3     1  UNL1        0.0077
      8 C         140.3522  145.3266  162.4539 C.3     1  UNL1        0.0459
      9 C         141.5691  144.5808  162.9156 C.ar    1  UNL1        0.0603
     10 C         142.5252  145.2261  163.8744 C.ar    1  UNL1        0.0145
     11 C         143.7421  144.4804  164.3361 C.ar    1  UNL1       -0.0003
     12 C         144.0028  143.0894  163.8390 C.ar    1  UNL1        0.0092
     13 C         143.0466  142.4441  162.8801 C.ar    1  UNL1        0.1240
     14 N         141.8297  143.1898  162.4185 N.ar    1  UNL1       -0.2356
     15 N         143.3073  141.0531  162.3830 N.pl3   1  UNL1       -0.3184
     16 C         144.5242  140.3074  162.8447 C.3     1  UNL1        0.0885
     17 C         145.4803  140.9527  163.8035 C.3     1  UNL1        0.0260
     18 C         145.2197  142.3437  164.3006 C.3     1  UNL1        0.0309
     19 H         142.6798  140.6296  161.7537 H       1  UNL1        0.1482
     20 C         139.2179  139.1249  164.8983 C.3     1  UNL1        0.0439
     21 C         140.6175  139.2806  165.4152 C.ar    1  UNL1       -0.0178
     22 C         141.6239  138.1904  165.1953 C.ar    1  UNL1       -0.0040
     23 C         143.0234  138.3462  165.7122 C.ar    1  UNL1        0.0028
     24 C         143.4164  139.5923  166.4490 C.ar    1  UNL1        0.0369
     25 C         142.4100  140.6825  166.6689 C.ar    1  UNL1        0.1382
     26 C         141.0105  140.5267  166.1521 C.ar    1  UNL1        0.0327
     27 O         142.8030  141.9286  167.4058 O.3     1  UNL1       -0.4765
     28 C         142.0456  142.3455  168.6315 C.3     1  UNL1        0.1978
     29 C         140.6672  142.9367  168.6576 C.3     1  UNL1        0.0782
     30 C         140.3032  143.2009  170.0886 C.3     1  UNL1        0.1461
     31 O         141.4566  142.7730  170.9469 O.3     1  UNL1       -0.3498
     32 C         142.5334  142.2443  170.0463 C.3     1  UNL1        0.1855
     33 C         138.8190  137.8698  164.1802 C.3     1  UNL1        0.0474
     34 O         137.6970  138.0533  161.8440 O.co2   1  UNL1       -0.5492
     35 C         138.9130  137.7992  162.6848 C.2     1  UNL1        0.0507
     36 O         140.2229  137.4745  162.0302 O.co2   1  UNL1       -0.5492
@<TRIPOS>UNITY_ATOM_ATTR
34 1
charge -1
@<TRIPOS>BOND
     1    34    35   ar
     2    35    36   ar
     3    35    33    1
     4    20    33    1
     5    20     1    1
     6     1     2    1
     7     2     3    1
     8     3     4    1
     9     4     5    1
    10     5     7    1
    11     7     8    1
    12     8     9    1
    13     9    10   ar
    14    10    11   ar
    15    11    12   ar
    16    12    13   ar
    17    13    14   ar
    18    13    15    1
    19    15    16    1
    20    16    17    1
    21    17    18    1
    22     5     6    1
    23    20    21    1
    24    21    22   ar
    25    22    23   ar
    26    23    24   ar
    27    24    25   ar
    28    25    27    1
    29    28    27    1
    30    28    29    1
    31    29    30    1
    32    30    31    1
    33    31    32    1
    34    25    26   ar
    35     6     2    1
    36    26    21   ar
    37    14     9   ar
    38    32    28    1
    39    18    12    1
    40    15    19    1
@<TRIPOS>MOLECULE
*****
 36 40 0 0 0
SMALL
GASTEIGER

@<TRIPOS>ATOM
      1 C         140.3754  143.9908  164.9943 C.3     1  UNL1        0.0768
      2 N         141.7774  143.8801  164.4728 N.3     1  UNL1       -0.2724
      3 C         142.4170  144.7873  163.4638 C.3     1  UNL1        0.0721
      4 C         143.8210  144.3107  163.2361 C.3     1  UNL1        0.0187
      5 C         144.0491  143.1091  164.1045 C.3     1  UNL1        0.0178
      6 C         142.7861  142.8430  164.8688 C.3     1  UNL1        0.0721
      7 C         145.3175  142.3133  164.1930 C.3     1  UNL1        0.0077
      8 C         145.3402  140.8851  163.7352 C.3     1  UNL1        0.0459
      9 C         144.1067  140.0397  163.8538 C.ar    1  UNL1        0.0603
     10 C         143.8493  139.2607  165.1095 C.ar    1  UNL1        0.0145
     11 C         142.6159  138.4154  165.2280 C.ar    1  UNL1       -0.0003
     12 C         141.6398  138.3491  164.0909 C.ar    1  UNL1        0.0092
     13 C         141.8973  139.1281  162.8352 C.ar    1  UNL1        0.1240
     14 N         143.1308  139.9735  162.7166 N.ar    1  UNL1       -0.2356
     15 N         140.9214  139.0619  161.6981 N.pl3   1  UNL1       -0.3184
     16 C         139.6879  138.2166  161.8166 C.3     1  UNL1        0.0885
     17 C         139.4305  137.4375  163.0723 C.3     1  UNL1        0.0260
     18 C         140.4064  137.5038  164.2094 C.3     1  UNL1        0.0309
     19 H         141.0903  139.5732  160.8739 H       1  UNL1        0.1482
     20 C         139.3513  142.9619  164.6166 C.3     1  UNL1        0.0439
     21 C         139.1986  141.7179  165.4409 C.ar    1  UNL1       -0.0178
     22 C         138.1916  140.6775  165.0491 C.ar    1  UNL1       -0.0040
     23 C         138.0390  139.4336  165.8734 C.ar    1  UNL1        0.0028
     24 C         138.8934  139.2300  167.0893 C.ar    1  UNL1        0.0369
     25 C         139.9004  140.2704  167.4811 C.ar    1  UNL1        0.1382
     26 C         140.0530  141.5143  166.6568 C.ar    1  UNL1        0.0327
     27 O         140.7549  140.0668  168.6970 O.3     1  UNL1       -0.4765
     28 C         141.3106  141.2516  169.4300 C.3     1  UNL1        0.1978
     29 C         142.7632  141.5954  169.5771 C.3     1  UNL1        0.0782
     30 C         142.8618  142.8570  170.3826 C.3     1  UNL1        0.1461
     31 O         141.4699  143.2929  170.7333 O.3     1  UNL1       -0.3498
     32 C         140.5113  142.3008  170.1445 C.3     1  UNL1        0.1855
     33 C         138.4799  143.1769  163.4148 C.3     1  UNL1        0.0474
     34 O         138.1370  143.0759  160.8414 O.co2   1  UNL1       -0.5492
     35 C         138.9643  142.7700  162.0547 C.2     1  UNL1        0.0507
     36 O         140.2759  142.0572  161.9079 O.co2   1  UNL1       -0.5492
@<TRIPOS>UNITY_ATOM_ATTR
34 1
charge -1
@<TRIPOS>BOND
     1    34    35   ar
     2    35    36   ar
     3    35    33    1
     4    20    33    1
     5    20     1    1
     6     1     2    1
     7     2     3    1
     8     3     4    1
     9     4     5    1
    10     5     7    1
    11     7     8    1
    12     8     9    1
    13     9    10   ar
    14    10    11   ar
    15    11    12   ar
    16    12    13   ar
    17    13    14   ar
    18    13    15    1
    19    15    16    1
    20    16    17    1
    21    17    18    1
    22     5     6    1
    23    20    21    1
    24    21    22   ar
    25    22    23   ar
    26    23    24   ar
    27    24    25   ar
    28    25    27    1
    29    28    27    1
    30    28    29    1
    31    29    30    1
    32    30    31    1
    33    31    32    1
    34    25    26   ar
    35     6     2    1
    36    26    21   ar
    37    14     9   ar
    38    32    28    1
    39    18    12    1
    40    15    19    1
@<TRIPOS>MOLECULE
*****
 36 40 0 0 0
SMALL
GASTEIGER

@<TRIPOS>ATOM
      1 C         142.0479  137.6151  163.8751 C.3     1  UNL1        0.0768
      2 N         143.0283  138.6340  163.3746 N.3     1  UNL1       -0.2724
      3 C         143.2776  138.9863  161.9379 C.3     1  UNL1        0.0721
      4 C         144.3350  140.0495  161.8982 C.3     1  UNL1        0.0187
      5 C         144.7392  140.3543  163.3102 C.3     1  UNL1        0.0178
      6 C         143.9316  139.4795  164.2226 C.3     1  UNL1        0.0721
      7 C         145.7699  141.3577  163.7351 C.3     1  UNL1        0.0077
      8 C         145.3505  142.6038  164.4572 C.3     1  UNL1        0.0459
      9 C         144.0239  143.2353  164.1550 C.ar    1  UNL1        0.0603
     10 C         143.8674  144.1091  162.9458 C.ar    1  UNL1        0.0145
     11 C         142.5409  144.7407  162.6435 C.ar    1  UNL1       -0.0003
     12 C         141.3708  144.4985  163.5504 C.ar    1  UNL1        0.0092
     13 C         141.5273  143.6247  164.7595 C.ar    1  UNL1        0.1240
     14 N         142.8539  142.9931  165.0618 N.ar    1  UNL1       -0.2356
     15 N         140.3573  143.3825  165.6664 N.pl3   1  UNL1       -0.3184
     16 C         139.0308  144.0141  165.3641 C.3     1  UNL1        0.0885
     17 C         138.8743  144.8879  164.1549 C.3     1  UNL1        0.0260
     18 C         140.0443  145.1301  163.2481 C.3     1  UNL1        0.0309
     19 H         140.4601  142.8090  166.4600 H       1  UNL1        0.1482
     20 C         140.5756  137.8942  163.8071 C.3     1  UNL1        0.0439
     21 C         139.8492  138.3895  165.0225 C.ar    1  UNL1       -0.0178
     22 C         138.6254  137.6716  165.5093 C.ar    1  UNL1       -0.0040
     23 C         137.8990  138.1668  166.7246 C.ar    1  UNL1        0.0028
     24 C         138.3965  139.3799  167.4533 C.ar    1  UNL1        0.0369
     25 C         139.6203  140.0978  166.9665 C.ar    1  UNL1        0.1382
     26 C         140.3466  139.6026  165.7512 C.ar    1  UNL1        0.0327
     27 O         140.1177  141.3110  167.6952 O.3     1  UNL1       -0.4765
     28 C         140.5570  141.1993  169.1250 C.3     1  UNL1        0.1978
     29 C         141.9230  140.8001  169.5990 C.3     1  UNL1        0.0782
     30 C         141.9178  140.8213  171.0989 C.3     1  UNL1        0.1461
     31 O         140.5485  141.2337  171.5518 O.3     1  UNL1       -0.3498
     32 C         139.7075  141.4673  170.3319 C.3     1  UNL1        0.1855
     33 C         139.8298  137.6781  162.5238 C.3     1  UNL1        0.0474
     34 O         139.8939  139.8460  161.0931 O.co2   1  UNL1       -0.5492
     35 C         139.1168  138.8238  161.8686 C.2     1  UNL1        0.0507
     36 O         137.6268  138.9472  161.9889 O.co2   1  UNL1       -0.5492
@<TRIPOS>UNITY_ATOM_ATTR
34 1
charge -1
@<TRIPOS>BOND
     1    34    35   ar
     2    35    36   ar
     3    35    33    1
     4    20    33    1
     5    20     1    1
     6     1     2    1
     7     2     3    1
     8     3     4    1
     9     4     5    1
    10     5     7    1
    11     7     8    1
    12     8     9    1
    13     9    10   ar
    14    10    11   ar
    15    11    12   ar
    16    12    13   ar
    17    13    14   ar
    18    13    15    1
    19    15    16    1
    20    16    17    1
    21    17    18    1
    22     5     6    1
    23    20    21    1
    24    21    22   ar
    25    22    23   ar
    26    23    24   ar
    27    24    25   ar
    28    25    27    1
    29    28    27    1
    30    28    29    1
    31    29    30    1
    32    30    31    1
    33    31    32    1
    34    25    26   ar
    35     6     2    1
    36    26    21   ar
    37    14     9   ar
    38    32    28    1
    39    18    12    1
    40    15    19    1
@<TRIPOS>MOLECULE
*****
 36 40 0 0 0
SMALL
GASTEIGER

@<TRIPOS>ATOM
      1 C         141.1691  140.5393  167.4454 C.3     1  UNL1        0.0768
      2 N         142.1115  140.0839  166.3710 N.3     1  UNL1       -0.2724
      3 C         142.0325  138.7877  165.6201 C.3     1  UNL1        0.0721
      4 C         143.1706  138.7474  164.6438 C.3     1  UNL1        0.0187
      5 C         143.9530  140.0187  164.7913 C.3     1  UNL1        0.0178
      6 C         143.2985  140.8446  165.8588 C.3     1  UNL1        0.0721
      7 C         145.1753  140.3974  164.0088 C.3     1  UNL1        0.0077
      8 C         145.4491  141.8388  163.6965 C.3     1  UNL1        0.0459
      9 C         144.3111  142.7742  163.4136 C.ar    1  UNL1        0.0603
     10 C         144.1030  143.9843  164.2751 C.ar    1  UNL1        0.0145
     11 C         142.9650  144.9197  163.9922 C.ar    1  UNL1       -0.0003
     12 C         142.0351  144.6449  162.8477 C.ar    1  UNL1        0.0092
     13 C         142.2432  143.4348  161.9861 C.ar    1  UNL1        0.1240
     14 N         143.3812  142.4994  162.2691 N.ar    1  UNL1       -0.2356
     15 N         141.3133  143.1600  160.8417 N.pl3   1  UNL1       -0.3184
     16 C         140.1754  144.0954  160.5588 C.3     1  UNL1        0.0885
     17 C         139.9673  145.3056  161.4203 C.3     1  UNL1        0.0260
     18 C         140.8971  145.5803  162.5648 C.3     1  UNL1        0.0309
     19 H         141.4499  142.3658  160.2762 H       1  UNL1        0.1482
     20 C         140.6832  141.9582  167.4649 C.3     1  UNL1        0.0439
     21 C         139.7815  142.4572  166.3748 C.ar    1  UNL1       -0.0178
     22 C         139.5671  143.9308  166.1945 C.ar    1  UNL1       -0.0040
     23 C         138.6655  144.4297  165.1045 C.ar    1  UNL1        0.0028
     24 C         137.9782  143.4549  164.1947 C.ar    1  UNL1        0.0369
     25 C         138.1926  141.9813  164.3750 C.ar    1  UNL1        0.1382
     26 C         139.0943  141.4825  165.4650 C.ar    1  UNL1        0.0327
     27 O         137.5054  141.0066  163.4652 O.3     1  UNL1       -0.4765
     28 C         138.2801  139.8771  162.8538 C.3     1  UNL1        0.1978
     29 C         138.6356  138.5852  163.5280 C.3     1  UNL1        0.0782
     30 C         139.4105  137.7507  162.5517 C.3     1  UNL1        0.1461
     31 O         139.5339  138.5269  161.2740 O.3     1  UNL1       -0.3498
     32 C         138.8352  139.8410  161.4607 C.3     1  UNL1        0.1855
     33 C         141.0988  142.8782  168.5742 C.3     1  UNL1        0.0474
     34 O         140.0185  144.5004  170.2924 O.co2   1  UNL1       -0.5492
     35 C         140.1791  143.1170  169.7349 C.2     1  UNL1        0.0507
     36 O         139.4200  141.9725  170.3381 O.co2   1  UNL1       -0.5492
@<TRIPOS>UNITY_ATOM_ATTR
34 1
charge -1
@<TRIPOS>BOND
     1    34    35   ar
     2    35    36   ar
     3    35    33    1
     4    20    33    1
     5    20     1    1
     6     1     2    1
     7     2     3    1
     8     3     4    1
     9     4     5    1
    10     5     7    1
    11     7     8    1
    12     8     9    1
    13     9    10   ar
    14    10    11   ar
    15    11    12   ar
    16    12    13   ar
    17    13    14   ar
    18    13    15    1
    19    15    16    1
    20    16    17    1
    21    17    18    1
    22     5     6    1
    23    20    21    1
    24    21    22   ar
    25    22    23   ar
    26    23    24   ar
    27    24    25   ar
    28    25    27    1
    29    28    27    1
    30    28    29    1
    31    29    30    1
    32    30    31    1
    33    31    32    1
    34    25    26   ar
    35     6     2    1
    36    26    21   ar
    37    14     9   ar
    38    32    28    1
    39    18    12    1
    40    15    19    1
@<TRIPOS>MOLECULE
*****
 36 40 0 0 0
SMALL
GASTEIGER

@<TRIPOS>ATOM
      1 C         143.9633  142.8511  163.0735 C.3     1  UNL1        0.0768
      2 N         142.6499  143.4676  162.6929 N.3     1  UNL1       -0.2724
      3 C         142.1626  143.7118  161.2954 C.3     1  UNL1        0.0721
      4 C         140.8048  144.3434  161.3816 C.3     1  UNL1        0.0187
      5 C         140.4529  144.4896  162.8324 C.3     1  UNL1        0.0178
      6 C         141.5933  143.9484  163.6428 C.3     1  UNL1        0.0721
      7 C         139.1836  145.0744  163.3772 C.3     1  UNL1        0.0077
      8 C         138.2077  144.1998  164.1070 C.3     1  UNL1        0.0459
      9 C         138.4901  142.7358  164.2718 C.ar    1  UNL1        0.0603
     10 C         139.1105  142.2298  165.5402 C.ar    1  UNL1        0.0145
     11 C         139.3928  140.7659  165.7050 C.ar    1  UNL1       -0.0003
     12 C         139.0548  139.8079  164.6013 C.ar    1  UNL1        0.0092
     13 C         138.4344  140.3140  163.3328 C.ar    1  UNL1        0.1240
     14 N         138.1520  141.7780  163.1681 N.ar    1  UNL1       -0.2356
     15 N         138.0963  139.3561  162.2291 N.pl3   1  UNL1       -0.3184
     16 C         138.3787  137.8922  162.3939 C.3     1  UNL1        0.0885
     17 C         138.9991  137.3862  163.6624 C.3     1  UNL1        0.0260
     18 C         139.3371  138.3440  164.7661 C.3     1  UNL1        0.0309
     19 H         137.6891  139.6883  161.3966 H       1  UNL1        0.1482
     20 C         144.0179  141.4217  163.5251 C.3     1  UNL1        0.0439
     21 C         143.5177  141.0462  164.8886 C.ar    1  UNL1       -0.0178
     22 C         143.0567  139.6446  165.1586 C.ar    1  UNL1       -0.0040
     23 C         142.5565  139.2692  166.5220 C.ar    1  UNL1        0.0028
     24 C         142.5174  140.2954  167.6154 C.ar    1  UNL1        0.0369
     25 C         142.9785  141.6970  167.3454 C.ar    1  UNL1        0.1382
     26 C         143.4787  142.0724  165.9819 C.ar    1  UNL1        0.0327
     27 O         142.9394  142.7232  168.4387 O.3     1  UNL1       -0.4765
     28 C         141.8810  142.6494  169.4990 C.3     1  UNL1        0.1978
     29 C         140.4717  143.1477  169.3740 C.3     1  UNL1        0.0782
     30 C         139.7656  142.8707  170.6682 C.3     1  UNL1        0.1461
     31 O         140.7386  142.2012  171.5930 O.3     1  UNL1       -0.3498
     32 C         142.0460  142.0645  170.8703 C.3     1  UNL1        0.1855
     33 C         144.5727  140.3678  162.6133 C.3     1  UNL1        0.0474
     34 O         142.2548  140.0851  161.4741 O.co2   1  UNL1       -0.5492
     35 C         143.7317  139.8236  161.4967 C.2     1  UNL1        0.0507
     36 O         144.3676  139.0179  160.4029 O.co2   1  UNL1       -0.5492
@<TRIPOS>UNITY_ATOM_ATTR
34 1
charge -1
@<TRIPOS>BOND
     1    34    35   ar
     2    35    36   ar
     3    35    33    1
     4    20    33    1
     5    20     1    1
     6     1     2    1
     7     2     3    1
     8     3     4    1
     9     4     5    1
    10     5     7    1
    11     7     8    1
    12     8     9    1
    13     9    10   ar
    14    10    11   ar
    15    11    12   ar
    16    12    13   ar
    17    13    14   ar
    18    13    15    1
    19    15    16    1
    20    16    17    1
    21    17    18    1
    22     5     6    1
    23    20    21    1
    24    21    22   ar
    25    22    23   ar
    26    23    24   ar
    27    24    25   ar
    28    25    27    1
    29    28    27    1
    30    28    29    1
    31    29    30    1
    32    30    31    1
    33    31    32    1
    34    25    26   ar
    35     6     2    1
    36    26    21   ar
    37    14     9   ar
    38    32    28    1
    39    18    12    1
    40    15    19    1
@<TRIPOS>MOLECULE
*****
 36 40 0 0 0
SMALL
GASTEIGER

@<TRIPOS>ATOM
      1 C         138.3196  142.5962  165.1295 C.3     1  UNL1        0.0768
      2 N         138.4459  141.1868  164.6321 N.3     1  UNL1       -0.2724
      3 C         138.0869  140.7007  163.2592 C.3     1  UNL1        0.0721
      4 C         138.3725  139.2294  163.1989 C.3     1  UNL1        0.0187
      5 C         138.9080  138.8061  164.5346 C.3     1  UNL1        0.0178
      6 C         138.9533  140.0158  165.4204 C.3     1  UNL1        0.0721
      7 C         139.3249  137.4170  164.9173 C.3     1  UNL1        0.0077
      8 C         140.6979  136.9234  164.5694 C.3     1  UNL1        0.0459
      9 C         141.8133  137.9019  164.3496 C.ar    1  UNL1        0.0603
     10 C         142.8251  138.1412  165.4308 C.ar    1  UNL1        0.0145
     11 C         143.9405  139.1197  165.2110 C.ar    1  UNL1       -0.0003
     12 C         144.0442  139.8590  163.9100 C.ar    1  UNL1        0.0092
     13 C         143.0325  139.6197  162.8287 C.ar    1  UNL1        0.1240
     14 N         141.9170  138.6412  163.0485 N.ar    1  UNL1       -0.2356
     15 N         143.1361  140.3590  161.5277 N.pl3   1  UNL1       -0.3184
     16 C         144.2515  141.3375  161.3079 C.3     1  UNL1        0.0885
     17 C         145.2633  141.5767  162.3892 C.3     1  UNL1        0.0260
     18 C         145.1596  140.8375  163.6902 C.3     1  UNL1        0.0309
     19 H         142.4721  140.2020  160.8180 H       1  UNL1        0.1482
     20 C         139.3678  143.6112  164.7813 C.3     1  UNL1        0.0439
     21 C         140.8023  143.3622  165.1426 C.ar    1  UNL1       -0.0178
     22 C         141.8993  143.9729  164.3219 C.ar    1  UNL1       -0.0040
     23 C         143.3337  143.7238  164.6833 C.ar    1  UNL1        0.0028
     24 C         143.6710  142.8641  165.8653 C.ar    1  UNL1        0.0369
     25 C         142.5739  142.2534  166.6860 C.ar    1  UNL1        0.1382
     26 C         141.1396  142.5024  166.3246 C.ar    1  UNL1        0.0327
     27 O         142.9112  141.3937  167.8680 O.3     1  UNL1       -0.4765
     28 C         142.1874  141.5876  169.1673 C.3     1  UNL1        0.1978
     29 C         141.2655  140.6000  169.8189 C.3     1  UNL1        0.0782
     30 C         140.7666  141.2052  171.0976 C.3     1  UNL1        0.1461
     31 O         141.3803  142.5670  171.2362 O.3     1  UNL1       -0.3498
     32 C         142.2583  142.8033  170.0432 C.3     1  UNL1        0.1855
     33 C         138.9816  144.8751  164.0718 C.3     1  UNL1        0.0474
     34 O         137.9081  143.7494  161.9908 O.co2   1  UNL1       -0.5492
     35 C         138.7205  144.8563  162.5948 C.2     1  UNL1        0.0507
     36 O         139.2718  145.9444  161.7219 O.co2   1  UNL1       -0.5492
@<TRIPOS>UNITY_ATOM_ATTR
34 1
charge -1
@<TRIPOS>BOND
     1    34    35   ar
     2    35    36   ar
     3    35    33    1
     4    20    33    1
     5    20     1    1
     6     1     2    1
     7     2     3    1
     8     3     4    1
     9     4     5    1
    10     5     7    1
    11     7     8    1
    12     8     9    1
    13     9    10   ar
    14    10    11   ar
    15    11    12   ar
    16    12    13   ar
    17    13    14   ar
    18    13    15    1
    19    15    16    1
    20    16    17    1
    21    17    18    1
    22     5     6    1
    23    20    21    1
    24    21    22   ar
    25    22    23   ar
    26    23    24   ar
    27    24    25   ar
    28    25    27    1
    29    28    27    1
    30    28    29    1
    31    29    30    1
    32    30    31    1
    33    31    32    1
    34    25    26   ar
    35     6     2    1
    36    26    21   ar
    37    14     9   ar
    38    32    28    1
    39    18    12    1
    40    15    19    1
@<TRIPOS>MOLECULE
*****
 36 40 0 0 0
SMALL
GASTEIGER

@<TRIPOS>ATOM
      1 C         144.0354  141.7927  161.9511 C.3     1  UNL1        0.0768
      2 N         142.9435  142.7496  161.5743 N.3     1  UNL1       -0.2724
      3 C         142.3513  142.9175  160.2063 C.3     1  UNL1        0.0721
      4 C         141.2938  143.9783  160.2860 C.3     1  UNL1        0.0187
      5 C         141.2324  144.4661  161.7031 C.3     1  UNL1        0.0178
      6 C         142.2519  143.7067  162.4993 C.3     1  UNL1        0.0721
      7 C         140.3128  145.5270  162.2312 C.3     1  UNL1        0.0077
      8 C         138.9654  145.1502  162.7720 C.3     1  UNL1        0.0459
      9 C         138.7714  143.8236  163.4448 C.ar    1  UNL1        0.0603
     10 C         137.7758  142.8439  162.8981 C.ar    1  UNL1        0.0145
     11 C         137.5818  141.5173  163.5708 C.ar    1  UNL1       -0.0003
     12 C         138.3834  141.1704  164.7903 C.ar    1  UNL1        0.0092
     13 C         139.3791  142.1501  165.3370 C.ar    1  UNL1        0.1240
     14 N         139.5730  143.4767  164.6642 N.ar    1  UNL1       -0.2356
     15 N         140.1807  141.8033  166.5565 N.pl3   1  UNL1       -0.3184
     16 C         139.9867  140.4767  167.2292 C.3     1  UNL1        0.0885
     17 C         138.9910  139.4970  166.6824 C.3     1  UNL1        0.0260
     18 C         138.1894  139.8439  165.4630 C.3     1  UNL1        0.0309
     19 H         140.8341  142.4463  166.9153 H       1  UNL1        0.1482
     20 C         144.1685  141.3280  163.3711 C.3     1  UNL1        0.0439
     21 C         143.4418  140.0982  163.8290 C.ar    1  UNL1       -0.0178
     22 C         143.5751  139.6333  165.2489 C.ar    1  UNL1       -0.0040
     23 C         142.8483  138.4036  165.7067 C.ar    1  UNL1        0.0028
     24 C         141.9883  137.6388  164.7447 C.ar    1  UNL1        0.0369
     25 C         141.8550  138.1037  163.3248 C.ar    1  UNL1        0.1382
     26 C         142.5817  139.3335  162.8670 C.ar    1  UNL1        0.0327
     27 O         140.9949  137.3390  162.3628 O.3     1  UNL1       -0.4765
     28 C         139.8154  138.0049  161.7186 C.3     1  UNL1        0.1978
     29 C         138.4224  138.0593  162.2724 C.3     1  UNL1        0.0782
     30 C         137.5677  138.8214  161.3035 C.3     1  UNL1        0.1461
     31 O         138.4326  139.2381  160.1509 O.3     1  UNL1       -0.3498
     32 C         139.8216  138.7335  160.4074 C.3     1  UNL1        0.1855
     33 C         145.0283  142.0930  164.3331 C.3     1  UNL1        0.0474
     34 O         142.9505  142.9239  165.6531 O.co2   1  UNL1       -0.5492
     35 C         144.4014  143.0570  165.2963 C.2     1  UNL1        0.0507
     36 O         145.2253  144.1540  165.9026 O.co2   1  UNL1       -0.5492
@<TRIPOS>UNITY_ATOM_ATTR
34 1
charge -1
@<TRIPOS>BOND
     1    34    35   ar
     2    35    36   ar
     3    35    33    1
     4    20    33    1
     5    20     1    1
     6     1     2    1
     7     2     3    1
     8     3     4    1
     9     4     5    1
    10     5     7    1
    11     7     8    1
    12     8     9    1
    13     9    10   ar
    14    10    11   ar
    15    11    12   ar
    16    12    13   ar
    17    13    14   ar
    18    13    15    1
    19    15    16    1
    20    16    17    1
    21    17    18    1
    22     5     6    1
    23    20    21    1
    24    21    22   ar
    25    22    23   ar
    26    23    24   ar
    27    24    25   ar
    28    25    27    1
    29    28    27    1
    30    28    29    1
    31    29    30    1
    32    30    31    1
    33    31    32    1
    34    25    26   ar
    35     6     2    1
    36    26    21   ar
    37    14     9   ar
    38    32    28    1
    39    18    12    1
    40    15    19    1
@<TRIPOS>MOLECULE
*****
 36 40 0 0 0
SMALL
GASTEIGER

@<TRIPOS>ATOM
      1 C         138.4229  138.4850  163.2157 C.3     1  UNL1        0.0768
      2 N         139.5422  138.4183  162.2193 N.3     1  UNL1       -0.2724
      3 C         139.4310  138.6925  160.7487 C.3     1  UNL1        0.0721
      4 C         140.7892  138.5093  160.1391 C.3     1  UNL1        0.0187
      5 C         141.7398  138.1218  161.2328 C.3     1  UNL1        0.0178
      6 C         140.9691  138.0656  162.5185 C.3     1  UNL1        0.0721
      7 C         143.2040  137.8401  161.0696 C.3     1  UNL1        0.0077
      8 C         144.1735  138.9744  160.9168 C.3     1  UNL1        0.0459
      9 C         144.2229  140.0629  161.9478 C.ar    1  UNL1        0.0603
     10 C         144.5258  139.7279  163.3782 C.ar    1  UNL1        0.0145
     11 C         144.5751  140.8163  164.4092 C.ar    1  UNL1       -0.0003
     12 C         144.3216  142.2398  164.0097 C.ar    1  UNL1        0.0092
     13 C         144.0186  142.5748  162.5794 C.ar    1  UNL1        0.1240
     14 N         143.9693  141.4863  161.5484 N.ar    1  UNL1       -0.2356
     15 N         143.7651  143.9982  162.1799 N.pl3   1  UNL1       -0.3184
     16 C         143.8144  145.0866  163.2109 C.3     1  UNL1        0.0885
     17 C         144.1173  144.7516  164.6413 C.3     1  UNL1        0.0260
     18 C         144.3709  143.3282  165.0407 C.3     1  UNL1        0.0309
     19 H         143.5662  144.2181  161.2411 H       1  UNL1        0.1482
     20 C         138.6767  139.0196  164.5941 C.3     1  UNL1        0.0439
     21 C         138.8639  140.4930  164.8044 C.ar    1  UNL1       -0.0178
     22 C         137.8449  141.4609  164.2801 C.ar    1  UNL1       -0.0040
     23 C         138.0321  142.9342  164.4905 C.ar    1  UNL1        0.0028
     24 C         139.2383  143.4397  165.2251 C.ar    1  UNL1        0.0369
     25 C         140.2573  142.4718  165.7494 C.ar    1  UNL1        0.1382
     26 C         140.0701  140.9985  165.5390 C.ar    1  UNL1        0.0327
     27 O         141.4634  142.9773  166.4840 O.3     1  UNL1       -0.4765
     28 C         141.7708  142.4681  167.8610 C.3     1  UNL1        0.1978
     29 C         143.1358  142.1690  168.4061 C.3     1  UNL1        0.0782
     30 C         142.9758  141.6847  169.8167 C.3     1  UNL1        0.1461
     31 O         141.5118  141.6844  170.1434 O.3     1  UNL1       -0.3498
     32 C         140.7671  142.1686  168.9347 C.3     1  UNL1        0.1855
     33 C         138.7434  138.0808  165.7621 C.3     1  UNL1        0.0474
     34 O         136.6413  137.7468  167.2520 O.co2   1  UNL1       -0.5492
     35 C         137.9772  138.3867  167.0148 C.2     1  UNL1        0.0507
     36 O         138.5467  139.3323  168.0303 O.co2   1  UNL1       -0.5492
@<TRIPOS>UNITY_ATOM_ATTR
34 1
charge -1
@<TRIPOS>BOND
     1    34    35   ar
     2    35    36   ar
     3    35    33    1
     4    20    33    1
     5    20     1    1
     6     1     2    1
     7     2     3    1
     8     3     4    1
     9     4     5    1
    10     5     7    1
    11     7     8    1
    12     8     9    1
    13     9    10   ar
    14    10    11   ar
    15    11    12   ar
    16    12    13   ar
    17    13    14   ar
    18    13    15    1
    19    15    16    1
    20    16    17    1
    21    17    18    1
    22     5     6    1
    23    20    21    1
    24    21    22   ar
    25    22    23   ar
    26    23    24   ar
    27    24    25   ar
    28    25    27    1
    29    28    27    1
    30    28    29    1
    31    29    30    1
    32    30    31    1
    33    31    32    1
    34    25    26   ar
    35     6     2    1
    36    26    21   ar
    37    14     9   ar
    38    32    28    1
    39    18    12    1
    40    15    19    1
