@<TRIPOS>MOLECULE
*****
 36 39 0 0 0
SMALL
GASTEIGER

@<TRIPOS>ATOM
      1 N         139.6811  139.9839  160.7475 N.3     1  UNL1       -0.2700
      2 C         138.4454  142.1773  160.1054 C.3     1  UNL1        0.0173
      3 C         139.4147  141.0846  159.7639 C.3     1  UNL1        0.0579
      4 C         140.1175  141.0927  158.4388 C.3     1  UNL1        0.0173
      5 C         141.0827  139.4962  160.9658 C.3     1  UNL1        0.0771
      6 C         142.1197  140.4218  161.5298 C.3     1  UNL1        0.0468
      7 C         141.9996  140.9108  162.9427 C.ar    1  UNL1        0.0162
      8 C         141.5423  142.2747  163.3678 C.ar    1  UNL1        0.0988
      9 N         141.5758  142.3285  164.8665 N.ar    1  UNL1       -0.1654
     10 N         142.0538  140.9980  165.3676 N.ar    1  UNL1       -0.2285
     11 C         142.2844  140.4710  166.7529 C.ar    1  UNL1        0.1004
     12 C         142.7769  139.0679  166.9492 C.ar    1  UNL1        0.0207
     13 C         143.0388  138.1917  165.7603 C.ar    1  UNL1        0.0031
     14 C         142.8082  138.7186  164.3750 C.ar    1  UNL1        0.0189
     15 C         142.3157  140.1217  164.1786 C.ar    1  UNL1        0.0804
     16 C         141.1248  143.3890  162.4546 C.ar    1  UNL1        0.0191
     17 C         139.9872  144.2877  162.8394 C.ar    1  UNL1        0.0015
     18 C         139.5697  145.4021  161.9262 C.ar    1  UNL1        0.0000
     19 C         140.2898  145.6177  160.6282 C.ar    1  UNL1        0.0000
     20 C         141.4274  144.7191  160.2434 C.ar    1  UNL1        0.0000
     21 C         141.8449  143.6047  161.1566 C.ar    1  UNL1        0.0015
     22 C         138.5460  139.3709  161.5128 C.3     1  UNL1        0.0991
     23 C         138.5967  139.3123  163.0108 C.ar    1  UNL1       -0.0061
     24 C         138.2951  140.5387  163.8200 C.ar    1  UNL1       -0.0029
     25 C         138.3458  140.4799  165.3181 C.ar    1  UNL1       -0.0003
     26 C         138.6981  139.1948  166.0068 C.ar    1  UNL1        0.0001
     27 C         138.9998  137.9684  165.1975 C.ar    1  UNL1       -0.0003
     28 C         138.9490  138.0271  163.6995 C.ar    1  UNL1       -0.0029
     29 C         138.7488  139.1361  167.5048 C.2     1  UNL1        0.0047
     30 C         139.2858  140.3005  168.2831 C.2     1  UNL1        0.0598
     31 C         139.3365  140.2419  169.7812 C.2     1  UNL1        0.2679
     32 O         138.1260  139.8131  170.5563 O.2     1  UNL1       -0.2681
     33 N         140.5977  140.6120  170.5040 N.am    1  UNL1       -0.1934
     34 O         140.6483  140.5534  172.0020 O.3     1  UNL1       -0.2949
     35 H         141.3921  140.8934  169.9953 H       1  UNL1        0.1825
     36 H         139.7892  140.2595  172.3433 H       1  UNL1        0.2414
@<TRIPOS>BOND
     1     2     3    1
     2     3     4    1
     3     3     1    1
     4     1     5    1
     5     5     6    1
     6     6     7    1
     7     7     8   ar
     8     8    16    1
     9    16    17   ar
    10    17    18   ar
    11    18    19   ar
    12    19    20   ar
    13    20    21   ar
    14     8     9   ar
    15     9    10   ar
    16    10    11   ar
    17    11    12   ar
    18    12    13   ar
    19    13    14   ar
    20    14    15   ar
    21     1    22    1
    22    22    23    1
    23    23    24   ar
    24    24    25   ar
    25    25    26   ar
    26    26    29    1
    27    29    30    2
    28    30    31    1
    29    31    32    2
    30    31    33   am
    31    33    34    1
    32    26    27   ar
    33    27    28   ar
    34    15     7   ar
    35    28    23   ar
    36    21    16   ar
    37    15    10   ar
    38    33    35    1
    39    34    36    1
@<TRIPOS>MOLECULE
*****
 36 39 0 0 0
SMALL
GASTEIGER

@<TRIPOS>ATOM
      1 N         142.7721  140.2407  167.9138 N.3     1  UNL1       -0.2700
      2 C         142.6476  138.5555  169.8873 C.3     1  UNL1        0.0173
      3 C         141.9991  139.6005  169.0285 C.3     1  UNL1        0.0579
      4 C         140.5777  140.0054  169.2846 C.3     1  UNL1        0.0173
      5 C         143.4226  139.3873  166.8656 C.3     1  UNL1        0.0771
      6 C         142.5793  138.5460  165.9538 C.3     1  UNL1        0.0468
      7 C         141.9369  139.1615  164.7461 C.ar    1  UNL1        0.0162
      8 C         140.4638  139.2412  164.4752 C.ar    1  UNL1        0.0988
      9 N         140.2715  139.9343  163.1589 N.ar    1  UNL1       -0.1654
     10 N         141.6258  140.2829  162.6163 N.ar    1  UNL1       -0.2285
     11 C         142.0546  140.9735  161.3557 C.ar    1  UNL1        0.1004
     12 C         143.5128  141.1865  161.0761 C.ar    1  UNL1        0.0207
     13 C         144.5422  140.7089  162.0571 C.ar    1  UNL1        0.0031
     14 C         144.1133  140.0182  163.3177 C.ar    1  UNL1        0.0189
     15 C         142.6551  139.8053  163.5972 C.ar    1  UNL1        0.0804
     16 C         139.3742  138.7195  165.3644 C.ar    1  UNL1        0.0191
     17 C         138.9287  137.2921  165.2462 C.ar    1  UNL1        0.0015
     18 C         137.8391  136.7704  166.1354 C.ar    1  UNL1        0.0000
     19 C         137.1952  137.6761  167.1429 C.ar    1  UNL1        0.0000
     20 C         137.6408  139.1035  167.2611 C.ar    1  UNL1        0.0000
     21 C         138.7303  139.6252  166.3719 C.ar    1  UNL1        0.0015
     22 C         142.8947  141.7341  167.8471 C.3     1  UNL1        0.0991
     23 C         142.7356  142.4418  166.5342 C.ar    1  UNL1       -0.0061
     24 C         143.9455  142.9285  165.7930 C.ar    1  UNL1       -0.0029
     25 C         143.7863  143.6362  164.4800 C.ar    1  UNL1       -0.0003
     26 C         142.4173  143.8571  163.9082 C.ar    1  UNL1        0.0001
     27 C         141.2074  143.3704  164.6493 C.ar    1  UNL1       -0.0003
     28 C         141.3665  142.6627  165.9622 C.ar    1  UNL1       -0.0029
     29 C         142.2582  144.5648  162.5952 C.2     1  UNL1        0.0047
     30 C         140.9887  144.4136  161.8108 C.2     1  UNL1        0.0598
     31 C         140.8295  145.1212  160.4978 C.2     1  UNL1        0.2679
     32 O         139.5001  145.7005  160.1144 O.2     1  UNL1       -0.2681
     33 N         141.9997  145.2495  159.5681 N.am    1  UNL1       -0.1934
     34 O         141.8404  145.9571  158.2552 O.3     1  UNL1       -0.2949
     35 H         142.8722  144.8693  159.8197 H       1  UNL1        0.1825
     36 H         140.9262  146.2684  158.1644 H       1  UNL1        0.2414
@<TRIPOS>BOND
     1     2     3    1
     2     3     4    1
     3     3     1    1
     4     1     5    1
     5     5     6    1
     6     6     7    1
     7     7     8   ar
     8     8    16    1
     9    16    17   ar
    10    17    18   ar
    11    18    19   ar
    12    19    20   ar
    13    20    21   ar
    14     8     9   ar
    15     9    10   ar
    16    10    11   ar
    17    11    12   ar
    18    12    13   ar
    19    13    14   ar
    20    14    15   ar
    21     1    22    1
    22    22    23    1
    23    23    24   ar
    24    24    25   ar
    25    25    26   ar
    26    26    29    1
    27    29    30    2
    28    30    31    1
    29    31    32    2
    30    31    33   am
    31    33    34    1
    32    26    27   ar
    33    27    28   ar
    34    15     7   ar
    35    28    23   ar
    36    21    16   ar
    37    15    10   ar
    38    33    35    1
    39    34    36    1
@<TRIPOS>MOLECULE
*****
 36 39 0 0 0
SMALL
GASTEIGER

@<TRIPOS>ATOM
      1 N         144.1772  141.0412  161.9286 N.3     1  UNL1       -0.2700
      2 C         144.1246  143.6332  162.0980 C.3     1  UNL1        0.0173
      3 C         144.2819  142.3881  161.2766 C.3     1  UNL1        0.0579
      4 C         144.5440  142.4897  159.8032 C.3     1  UNL1        0.0173
      5 C         143.4012  139.9439  161.2625 C.3     1  UNL1        0.0771
      6 C         141.9381  140.1224  160.9838 C.3     1  UNL1        0.0468
      7 C         140.9953  140.4472  162.1044 C.ar    1  UNL1        0.0162
      8 C         140.3266  141.7692  162.3389 C.ar    1  UNL1        0.0988
      9 N         139.4738  141.6460  163.5667 N.ar    1  UNL1       -0.1654
     10 N         139.6154  140.2478  164.0910 N.ar    1  UNL1       -0.2285
     11 C         139.0096  139.5535  165.2746 C.ar    1  UNL1        0.1004
     12 C         139.3441  138.1184  165.5545 C.ar    1  UNL1        0.0207
     13 C         140.2845  137.3774  164.6507 C.ar    1  UNL1        0.0031
     14 C         140.8903  138.0717  163.4672 C.ar    1  UNL1        0.0189
     15 C         140.5558  139.5068  163.1873 C.ar    1  UNL1        0.0804
     16 C         140.4833  142.9987  161.4939 C.ar    1  UNL1        0.0191
     17 C         140.3129  144.3569  162.1072 C.ar    1  UNL1        0.0015
     18 C         140.4695  145.5863  161.2622 C.ar    1  UNL1        0.0000
     19 C         140.7966  145.4575  159.8040 C.ar    1  UNL1        0.0000
     20 C         140.9670  144.0993  159.1908 C.ar    1  UNL1        0.0000
     21 C         140.8103  142.8699  160.0357 C.ar    1  UNL1        0.0015
     22 C         144.8484  140.7917  163.2466 C.3     1  UNL1        0.0991
     23 C         144.0232  140.5058  164.4661 C.ar    1  UNL1       -0.0061
     24 C         143.1347  141.5709  165.0371 C.ar    1  UNL1       -0.0029
     25 C         142.3095  141.2849  166.2567 C.ar    1  UNL1       -0.0003
     26 C         142.3728  139.9338  166.9053 C.ar    1  UNL1        0.0001
     27 C         143.2613  138.8687  166.3343 C.ar    1  UNL1       -0.0003
     28 C         144.0865  139.1546  165.1147 C.ar    1  UNL1       -0.0029
     29 C         141.5476  139.6479  168.1248 C.2     1  UNL1        0.0047
     30 C         140.4469  140.5862  168.5224 C.2     1  UNL1        0.0598
     31 C         139.6217  140.3003  169.7420 C.2     1  UNL1        0.2679
     32 O         140.1583  140.6271  171.1041 O.2     1  UNL1       -0.2681
     33 N         138.2599  139.6878  169.5995 N.am    1  UNL1       -0.1934
     34 O         137.4347  139.4020  170.8191 O.3     1  UNL1       -0.2949
     35 H         137.9077  139.4733  168.7055 H       1  UNL1        0.1825
     36 H         137.9251  139.6710  171.6116 H       1  UNL1        0.2414
@<TRIPOS>BOND
     1     2     3    1
     2     3     4    1
     3     3     1    1
     4     1     5    1
     5     5     6    1
     6     6     7    1
     7     7     8   ar
     8     8    16    1
     9    16    17   ar
    10    17    18   ar
    11    18    19   ar
    12    19    20   ar
    13    20    21   ar
    14     8     9   ar
    15     9    10   ar
    16    10    11   ar
    17    11    12   ar
    18    12    13   ar
    19    13    14   ar
    20    14    15   ar
    21     1    22    1
    22    22    23    1
    23    23    24   ar
    24    24    25   ar
    25    25    26   ar
    26    26    29    1
    27    29    30    2
    28    30    31    1
    29    31    32    2
    30    31    33   am
    31    33    34    1
    32    26    27   ar
    33    27    28   ar
    34    15     7   ar
    35    28    23   ar
    36    21    16   ar
    37    15    10   ar
    38    33    35    1
    39    34    36    1
@<TRIPOS>MOLECULE
*****
 36 39 0 0 0
SMALL
GASTEIGER

@<TRIPOS>ATOM
      1 N         139.2432  139.8534  160.6677 N.3     1  UNL1       -0.2700
      2 C         141.2833  138.7007  159.5455 C.3     1  UNL1        0.0173
      3 C         140.7241  139.6313  160.5805 C.3     1  UNL1        0.0579
      4 C         141.6458  140.3398  161.5284 C.3     1  UNL1        0.0173
      5 C         138.6120  140.9989  159.9333 C.3     1  UNL1        0.0771
      6 C         138.4607  142.3302  160.6079 C.3     1  UNL1        0.0468
      7 C         139.4920  143.3989  160.3978 C.ar    1  UNL1        0.0162
      8 C         140.2170  144.1486  161.4760 C.ar    1  UNL1        0.0988
      9 N         141.1524  145.1187  160.8172 N.ar    1  UNL1       -0.1654
     10 N         141.0056  144.9685  159.3320 N.ar    1  UNL1       -0.2285
     11 C         141.6738  145.6622  158.1821 C.ar    1  UNL1        0.1004
     12 C         141.3157  145.2931  156.7731 C.ar    1  UNL1        0.0207
     13 C         140.2895  144.2302  156.5139 C.ar    1  UNL1        0.0031
     14 C         139.6213  143.5365  157.6637 C.ar    1  UNL1        0.0189
     15 C         139.9794  143.9056  159.0728 C.ar    1  UNL1        0.0804
     16 C         140.0379  143.9612  162.9534 C.ar    1  UNL1        0.0191
     17 C         138.9016  144.6361  163.6627 C.ar    1  UNL1        0.0015
     18 C         138.7225  144.4487  165.1402 C.ar    1  UNL1        0.0000
     19 C         139.6798  143.5864  165.9083 C.ar    1  UNL1        0.0000
     20 C         140.8162  142.9115  165.1989 C.ar    1  UNL1        0.0000
     21 C         140.9952  143.0989  163.7215 C.ar    1  UNL1        0.0015
     22 C         138.3934  138.9300  161.4893 C.3     1  UNL1        0.0991
     23 C         138.4362  139.0048  162.9869 C.ar    1  UNL1       -0.0061
     24 C         138.7982  137.7898  163.7885 C.ar    1  UNL1       -0.0029
     25 C         138.8411  137.8647  165.2860 C.ar    1  UNL1       -0.0003
     26 C         138.5220  139.1546  165.9819 C.ar    1  UNL1        0.0001
     27 C         138.1600  140.3696  165.1803 C.ar    1  UNL1       -0.0003
     28 C         138.1171  140.2948  163.6828 C.ar    1  UNL1       -0.0029
     29 C         138.5648  139.2294  167.4795 C.2     1  UNL1        0.0047
     30 C         139.3656  140.3035  168.1540 C.2     1  UNL1        0.0598
     31 C         139.4085  140.3784  169.6516 C.2     1  UNL1        0.2679
     32 O         138.1320  140.4554  170.4355 O.2     1  UNL1       -0.2681
     33 N         140.7279  140.3764  170.3652 N.am    1  UNL1       -0.1934
     34 O         140.7707  140.4513  171.8627 O.3     1  UNL1       -0.2949
     35 H         141.5657  140.3259  169.8507 H       1  UNL1        0.1825
     36 H         139.8662  140.4952  172.2102 H       1  UNL1        0.2414
@<TRIPOS>BOND
     1     2     3    1
     2     3     4    1
     3     3     1    1
     4     1     5    1
     5     5     6    1
     6     6     7    1
     7     7     8   ar
     8     8    16    1
     9    16    17   ar
    10    17    18   ar
    11    18    19   ar
    12    19    20   ar
    13    20    21   ar
    14     8     9   ar
    15     9    10   ar
    16    10    11   ar
    17    11    12   ar
    18    12    13   ar
    19    13    14   ar
    20    14    15   ar
    21     1    22    1
    22    22    23    1
    23    23    24   ar
    24    24    25   ar
    25    25    26   ar
    26    26    29    1
    27    29    30    2
    28    30    31    1
    29    31    32    2
    30    31    33   am
    31    33    34    1
    32    26    27   ar
    33    27    28   ar
    34    15     7   ar
    35    28    23   ar
    36    21    16   ar
    37    15    10   ar
    38    33    35    1
    39    34    36    1
@<TRIPOS>MOLECULE
*****
 36 39 0 0 0
SMALL
GASTEIGER

@<TRIPOS>ATOM
      1 N         143.5041  140.3085  161.9721 N.3     1  UNL1       -0.2700
      2 C         144.6315  142.6355  161.7191 C.3     1  UNL1        0.0173
      3 C         143.8840  141.4820  161.1185 C.3     1  UNL1        0.0579
      4 C         143.5166  141.5019  159.6644 C.3     1  UNL1        0.0173
      5 C         142.5344  139.2876  161.4549 C.3     1  UNL1        0.0771
      6 C         141.0991  139.6620  161.2313 C.3     1  UNL1        0.0468
      7 C         140.2900  140.2366  162.3561 C.ar    1  UNL1        0.0162
      8 C         139.9031  141.6768  162.5178 C.ar    1  UNL1        0.0988
      9 N         139.0997  141.8022  163.7783 N.ar    1  UNL1       -0.1654
     10 N         138.9901  140.4395  164.3956 N.ar    1  UNL1       -0.2285
     11 C         138.3155  139.9548  165.6445 C.ar    1  UNL1        0.1004
     12 C         138.3765  138.5024  166.0145 C.ar    1  UNL1        0.0207
     13 C         139.1122  137.5349  165.1355 C.ar    1  UNL1        0.0031
     14 C         139.7868  138.0196  163.8866 C.ar    1  UNL1        0.0189
     15 C         139.7258  139.4719  163.5167 C.ar    1  UNL1        0.0804
     16 C         140.2574  142.7952  161.5831 C.ar    1  UNL1        0.0191
     17 C         139.7187  142.8018  160.1832 C.ar    1  UNL1        0.0015
     18 C         140.0729  143.9202  159.2485 C.ar    1  UNL1        0.0000
     19 C         140.9659  145.0321  159.7137 C.ar    1  UNL1        0.0000
     20 C         141.5046  145.0255  161.1136 C.ar    1  UNL1        0.0000
     21 C         141.1503  143.9071  162.0483 C.ar    1  UNL1        0.0015
     22 C         144.0936  140.1559  163.3429 C.3     1  UNL1        0.0991
     23 C         143.2562  140.4376  164.5550 C.ar    1  UNL1       -0.0061
     24 C         142.9132  139.3278  165.5041 C.ar    1  UNL1       -0.0029
     25 C         142.0757  139.6096  166.7162 C.ar    1  UNL1       -0.0003
     26 C         141.5812  141.0011  166.9793 C.ar    1  UNL1        0.0001
     27 C         141.9242  142.1109  166.0303 C.ar    1  UNL1       -0.0003
     28 C         142.7617  141.8292  164.8182 C.ar    1  UNL1       -0.0029
     29 C         140.7437  141.2827  168.1915 C.2     1  UNL1        0.0047
     30 C         141.3495  141.9727  169.3776 C.2     1  UNL1        0.0598
     31 C         140.5121  142.2544  170.5899 C.2     1  UNL1        0.2679
     32 O         140.6214  141.3725  171.7983 O.2     1  UNL1       -0.2681
     33 N         139.5655  143.4180  170.5937 N.am    1  UNL1       -0.1934
     34 O         138.7281  143.6996  171.8059 O.3     1  UNL1       -0.2949
     35 H         139.4937  143.9968  169.8006 H       1  UNL1        0.1825
     36 H         138.9193  143.0403  172.4913 H       1  UNL1        0.2414
@<TRIPOS>BOND
     1     2     3    1
     2     3     4    1
     3     3     1    1
     4     1     5    1
     5     5     6    1
     6     6     7    1
     7     7     8   ar
     8     8    16    1
     9    16    17   ar
    10    17    18   ar
    11    18    19   ar
    12    19    20   ar
    13    20    21   ar
    14     8     9   ar
    15     9    10   ar
    16    10    11   ar
    17    11    12   ar
    18    12    13   ar
    19    13    14   ar
    20    14    15   ar
    21     1    22    1
    22    22    23    1
    23    23    24   ar
    24    24    25   ar
    25    25    26   ar
    26    26    29    1
    27    29    30    2
    28    30    31    1
    29    31    32    2
    30    31    33   am
    31    33    34    1
    32    26    27   ar
    33    27    28   ar
    34    15     7   ar
    35    28    23   ar
    36    21    16   ar
    37    15    10   ar
    38    33    35    1
    39    34    36    1
@<TRIPOS>MOLECULE
*****
 36 39 0 0 0
SMALL
GASTEIGER

@<TRIPOS>ATOM
      1 N         144.2564  140.0097  162.2565 N.3     1  UNL1       -0.2700
      2 C         144.8939  142.4815  161.7727 C.3     1  UNL1        0.0173
      3 C         144.2579  141.1948  161.3369 C.3     1  UNL1        0.0579
      4 C         143.6235  141.0931  159.9815 C.3     1  UNL1        0.0173
      5 C         143.8987  138.6518  161.7294 C.3     1  UNL1        0.0771
      6 C         142.5557  138.0580  162.0362 C.3     1  UNL1        0.0468
      7 C         141.4163  138.2456  161.0787 C.ar    1  UNL1        0.0162
      8 C         139.9961  138.5561  161.4483 C.ar    1  UNL1        0.0988
      9 N         139.1993  138.6580  160.1816 N.ar    1  UNL1       -0.1654
     10 N         140.1269  138.4104  159.0291 N.ar    1  UNL1       -0.2285
     11 C         139.9010  138.3841  157.5465 C.ar    1  UNL1        0.1004
     12 C         141.0453  138.1030  156.6184 C.ar    1  UNL1        0.0207
     13 C         142.4155  137.8481  157.1728 C.ar    1  UNL1        0.0031
     14 C         142.6415  137.8743  158.6555 C.ar    1  UNL1        0.0189
     15 C         141.4972  138.1555  159.5836 C.ar    1  UNL1        0.0804
     16 C         139.4659  138.7337  162.8402 C.ar    1  UNL1        0.0191
     17 C         139.3899  137.5586  163.7694 C.ar    1  UNL1        0.0015
     18 C         138.8597  137.7361  165.1612 C.ar    1  UNL1        0.0000
     19 C         138.4055  139.0887  165.6240 C.ar    1  UNL1        0.0000
     20 C         138.4815  140.2637  164.6948 C.ar    1  UNL1        0.0000
     21 C         139.0117  140.0862  163.3029 C.ar    1  UNL1        0.0015
     22 C         144.6126  140.1826  163.7033 C.3     1  UNL1        0.0991
     23 C         143.5433  140.5006  164.7061 C.ar    1  UNL1       -0.0061
     24 C         142.8983  139.3965  165.4902 C.ar    1  UNL1       -0.0029
     25 C         141.8290  139.7146  166.4930 C.ar    1  UNL1       -0.0003
     26 C         141.4048  141.1366  166.7116 C.ar    1  UNL1        0.0001
     27 C         142.0498  142.2407  165.9275 C.ar    1  UNL1       -0.0003
     28 C         143.1191  141.9227  164.9247 C.ar    1  UNL1       -0.0029
     29 C         140.3355  141.4546  167.7144 C.2     1  UNL1        0.0047
     30 C         140.6954  141.6531  169.1570 C.2     1  UNL1        0.0598
     31 C         139.6261  141.9710  170.1598 C.2     1  UNL1        0.2679
     32 O         138.5644  140.9581  170.4707 O.2     1  UNL1       -0.2681
     33 N         139.6186  143.3018  170.8518 N.am    1  UNL1       -0.1934
     34 O         138.5494  143.6197  171.8547 O.3     1  UNL1       -0.2949
     35 H         140.3155  143.9667  170.6478 H       1  UNL1        0.1825
     36 H         137.9478  142.8632  171.9366 H       1  UNL1        0.2414
@<TRIPOS>BOND
     1     2     3    1
     2     3     4    1
     3     3     1    1
     4     1     5    1
     5     5     6    1
     6     6     7    1
     7     7     8   ar
     8     8    16    1
     9    16    17   ar
    10    17    18   ar
    11    18    19   ar
    12    19    20   ar
    13    20    21   ar
    14     8     9   ar
    15     9    10   ar
    16    10    11   ar
    17    11    12   ar
    18    12    13   ar
    19    13    14   ar
    20    14    15   ar
    21     1    22    1
    22    22    23    1
    23    23    24   ar
    24    24    25   ar
    25    25    26   ar
    26    26    29    1
    27    29    30    2
    28    30    31    1
    29    31    32    2
    30    31    33   am
    31    33    34    1
    32    26    27   ar
    33    27    28   ar
    34    15     7   ar
    35    28    23   ar
    36    21    16   ar
    37    15    10   ar
    38    33    35    1
    39    34    36    1
@<TRIPOS>MOLECULE
*****
 36 39 0 0 0
SMALL
GASTEIGER

@<TRIPOS>ATOM
      1 N         144.1838  140.7538  161.7971 N.3     1  UNL1       -0.2700
      2 C         144.1034  142.4736  159.8514 C.3     1  UNL1        0.0173
      3 C         143.5552  141.9498  161.1457 C.3     1  UNL1        0.0579
      4 C         142.3785  142.6220  161.7885 C.3     1  UNL1        0.0173
      5 C         144.1346  139.4173  161.1178 C.3     1  UNL1        0.0771
      6 C         143.0389  138.4476  161.4488 C.3     1  UNL1        0.0468
      7 C         141.7671  138.4530  160.6534 C.ar    1  UNL1        0.0162
      8 C         140.3800  138.5815  161.2096 C.ar    1  UNL1        0.0988
      9 N         139.4148  138.5386  160.0622 N.ar    1  UNL1       -0.1654
     10 N         140.2054  138.3837  158.7969 N.ar    1  UNL1       -0.2285
     11 C         139.7893  138.2839  157.3592 C.ar    1  UNL1        0.1004
     12 C         140.8271  138.1313  156.2870 C.ar    1  UNL1        0.0207
     13 C         142.2809  138.0783  156.6525 C.ar    1  UNL1        0.0031
     14 C         142.6970  138.1780  158.0901 C.ar    1  UNL1        0.0189
     15 C         141.6592  138.3307  159.1623 C.ar    1  UNL1        0.0804
     16 C         140.0210  138.7272  162.6587 C.ar    1  UNL1        0.0191
     17 C         140.0889  140.0735  163.3165 C.ar    1  UNL1        0.0015
     18 C         139.7300  140.2193  164.7656 C.ar    1  UNL1        0.0000
     19 C         139.3032  139.0187  165.5569 C.ar    1  UNL1        0.0000
     20 C         139.2353  137.6723  164.8992 C.ar    1  UNL1        0.0000
     21 C         139.5942  137.5266  163.4501 C.ar    1  UNL1        0.0015
     22 C         144.8617  140.8941  163.1277 C.3     1  UNL1        0.0991
     23 C         144.0972  140.6281  164.3906 C.ar    1  UNL1       -0.0061
     24 C         143.8268  139.2167  164.8205 C.ar    1  UNL1       -0.0029
     25 C         143.0623  138.9508  166.0834 C.ar    1  UNL1       -0.0003
     26 C         142.5681  140.0962  166.9163 C.ar    1  UNL1        0.0001
     27 C         142.8385  141.5076  166.4864 C.ar    1  UNL1       -0.0003
     28 C         143.6030  141.7736  165.2236 C.ar    1  UNL1       -0.0029
     29 C         141.8036  139.8302  168.1792 C.2     1  UNL1        0.0047
     30 C         140.7301  140.7804  168.6201 C.2     1  UNL1        0.0598
     31 C         139.9655  140.5145  169.8830 C.2     1  UNL1        0.2679
     32 O         138.9232  141.4880  170.3477 O.2     1  UNL1       -0.2681
     33 N         140.2431  139.2752  170.6811 N.am    1  UNL1       -0.1934
     34 O         139.4785  139.0093  171.9439 O.3     1  UNL1       -0.2949
     35 H         140.9272  138.6362  170.3760 H       1  UNL1        0.1825
     36 H         138.8491  139.7310  172.0988 H       1  UNL1        0.2414
@<TRIPOS>BOND
     1     2     3    1
     2     3     4    1
     3     3     1    1
     4     1     5    1
     5     5     6    1
     6     6     7    1
     7     7     8   ar
     8     8    16    1
     9    16    17   ar
    10    17    18   ar
    11    18    19   ar
    12    19    20   ar
    13    20    21   ar
    14     8     9   ar
    15     9    10   ar
    16    10    11   ar
    17    11    12   ar
    18    12    13   ar
    19    13    14   ar
    20    14    15   ar
    21     1    22    1
    22    22    23    1
    23    23    24   ar
    24    24    25   ar
    25    25    26   ar
    26    26    29    1
    27    29    30    2
    28    30    31    1
    29    31    32    2
    30    31    33   am
    31    33    34    1
    32    26    27   ar
    33    27    28   ar
    34    15     7   ar
    35    28    23   ar
    36    21    16   ar
    37    15    10   ar
    38    33    35    1
    39    34    36    1
@<TRIPOS>MOLECULE
*****
 36 39 0 0 0
SMALL
GASTEIGER

@<TRIPOS>ATOM
      1 N         143.1402  141.0468  161.2193 N.3     1  UNL1       -0.2700
      2 C         144.5292  142.4843  159.5596 C.3     1  UNL1        0.0173
      3 C         143.9158  142.2942  160.9152 C.3     1  UNL1        0.0579
      4 C         144.0780  143.3516  161.9667 C.3     1  UNL1        0.0173
      5 C         141.8080  140.8150  160.5701 C.3     1  UNL1        0.0771
      6 C         140.5943  140.5675  161.4163 C.3     1  UNL1        0.0468
      7 C         140.0108  141.6810  162.2347 C.ar    1  UNL1        0.0162
      8 C         139.3047  141.5322  163.5497 C.ar    1  UNL1        0.0988
      9 N         138.8885  142.8980  164.0094 N.ar    1  UNL1       -0.1654
     10 N         139.3374  143.8909  162.9786 N.ar    1  UNL1       -0.2285
     11 C         139.2042  145.3827  162.8970 C.ar    1  UNL1        0.1004
     12 C         139.7646  146.1223  161.7185 C.ar    1  UNL1        0.0207
     13 C         140.4582  145.3702  160.6216 C.ar    1  UNL1        0.0031
     14 C         140.5914  143.8784  160.7032 C.ar    1  UNL1        0.0189
     15 C         140.0310  143.1387  161.8817 C.ar    1  UNL1        0.0804
     16 C         139.0581  140.2438  164.2772 C.ar    1  UNL1        0.0191
     17 C         139.3677  138.9356  163.6118 C.ar    1  UNL1        0.0015
     18 C         139.1211  137.6472  164.3394 C.ar    1  UNL1        0.0000
     19 C         138.5648  137.6671  165.7322 C.ar    1  UNL1        0.0000
     20 C         138.2551  138.9752  166.3975 C.ar    1  UNL1        0.0000
     21 C         138.5018  140.2636  165.6700 C.ar    1  UNL1        0.0015
     22 C         143.6968  140.0312  162.1725 C.3     1  UNL1        0.0991
     23 C         143.1992  139.9781  163.5866 C.ar    1  UNL1       -0.0061
     24 C         142.9812  138.6534  164.2557 C.ar    1  UNL1       -0.0029
     25 C         142.4835  138.6004  165.6698 C.ar    1  UNL1       -0.0003
     26 C         142.2039  139.8719  166.4147 C.ar    1  UNL1        0.0001
     27 C         142.4219  141.1966  165.7456 C.ar    1  UNL1       -0.0003
     28 C         142.9195  141.2497  164.3315 C.ar    1  UNL1       -0.0029
     29 C         141.7063  139.8188  167.8288 C.2     1  UNL1        0.0047
     30 C         140.8119  140.9042  168.3503 C.2     1  UNL1        0.0598
     31 C         140.3143  140.8511  169.7644 C.2     1  UNL1        0.2679
     32 O         138.8755  141.1508  170.0647 O.2     1  UNL1       -0.2681
     33 N         141.2552  140.4985  170.8780 N.am    1  UNL1       -0.1934
     34 O         140.7574  140.4454  172.2920 O.3     1  UNL1       -0.2949
     35 H         142.1995  140.3018  170.6809 H       1  UNL1        0.1825
     36 H         139.8125  140.6636  172.3105 H       1  UNL1        0.2414
@<TRIPOS>BOND
     1     2     3    1
     2     3     4    1
     3     3     1    1
     4     1     5    1
     5     5     6    1
     6     6     7    1
     7     7     8   ar
     8     8    16    1
     9    16    17   ar
    10    17    18   ar
    11    18    19   ar
    12    19    20   ar
    13    20    21   ar
    14     8     9   ar
    15     9    10   ar
    16    10    11   ar
    17    11    12   ar
    18    12    13   ar
    19    13    14   ar
    20    14    15   ar
    21     1    22    1
    22    22    23    1
    23    23    24   ar
    24    24    25   ar
    25    25    26   ar
    26    26    29    1
    27    29    30    2
    28    30    31    1
    29    31    32    2
    30    31    33   am
    31    33    34    1
    32    26    27   ar
    33    27    28   ar
    34    15     7   ar
    35    28    23   ar
    36    21    16   ar
    37    15    10   ar
    38    33    35    1
    39    34    36    1
@<TRIPOS>MOLECULE
*****
 36 39 0 0 0
SMALL
GASTEIGER

@<TRIPOS>ATOM
      1 N         143.0581  143.9539  161.7197 N.3     1  UNL1       -0.2700
      2 C         141.8730  144.0528  159.4098 C.3     1  UNL1        0.0173
      3 C         141.9014  144.3915  160.8708 C.3     1  UNL1        0.0579
      4 C         140.7732  145.1677  161.4829 C.3     1  UNL1        0.0173
      5 C         144.0153  142.9189  161.2073 C.3     1  UNL1        0.0771
      6 C         143.5290  141.5328  160.9032 C.3     1  UNL1        0.0468
      7 C         142.7465  140.7702  161.9310 C.ar    1  UNL1        0.0162
      8 C         141.2693  140.5116  161.9013 C.ar    1  UNL1        0.0988
      9 N         140.9138  139.7140  163.1209 N.ar    1  UNL1       -0.1654
     10 N         142.1713  139.4795  163.9043 N.ar    1  UNL1       -0.2285
     11 C         142.4312  138.7559  165.1922 C.ar    1  UNL1        0.1004
     12 C         143.8239  138.6852  165.7448 C.ar    1  UNL1        0.0207
     13 C         144.9566  139.3380  165.0094 C.ar    1  UNL1        0.0031
     14 C         144.6967  140.0616  163.7214 C.ar    1  UNL1        0.0189
     15 C         143.3040  140.1323  163.1689 C.ar    1  UNL1        0.0804
     16 C         140.3151  140.9702  160.8387 C.ar    1  UNL1        0.0191
     17 C         140.4328  140.4339  159.4428 C.ar    1  UNL1        0.0015
     18 C         139.4786  140.8925  158.3802 C.ar    1  UNL1        0.0000
     19 C         138.4067  141.8875  158.7134 C.ar    1  UNL1        0.0000
     20 C         138.2890  142.4238  160.1092 C.ar    1  UNL1        0.0000
     21 C         139.2432  141.9652  161.1719 C.ar    1  UNL1        0.0015
     22 C         143.2577  144.5514  163.0809 C.3     1  UNL1        0.0991
     23 C         142.9518  143.7431  164.3069 C.ar    1  UNL1       -0.0061
     24 C         144.0439  143.4171  165.2821 C.ar    1  UNL1       -0.0029
     25 C         143.7378  142.6087  166.5081 C.ar    1  UNL1       -0.0003
     26 C         142.3398  142.1263  166.7588 C.ar    1  UNL1        0.0001
     27 C         141.2478  142.4523  165.7836 C.ar    1  UNL1       -0.0003
     28 C         141.5537  143.2607  164.5576 C.ar    1  UNL1       -0.0029
     29 C         142.0339  141.3180  167.9848 C.2     1  UNL1        0.0047
     30 C         141.1500  141.8852  169.0557 C.2     1  UNL1        0.0598
     31 C         140.8440  141.0769  170.2818 C.2     1  UNL1        0.2679
     32 O         141.5037  141.4138  171.5861 O.2     1  UNL1       -0.2681
     33 N         139.8783  139.9317  170.2035 N.am    1  UNL1       -0.1934
     34 O         139.5724  139.1235  171.4296 O.3     1  UNL1       -0.2949
     35 H         139.4453  139.7106  169.3474 H       1  UNL1        0.1825
     36 H         140.0786  139.4710  172.1805 H       1  UNL1        0.2414
@<TRIPOS>BOND
     1     2     3    1
     2     3     4    1
     3     3     1    1
     4     1     5    1
     5     5     6    1
     6     6     7    1
     7     7     8   ar
     8     8    16    1
     9    16    17   ar
    10    17    18   ar
    11    18    19   ar
    12    19    20   ar
    13    20    21   ar
    14     8     9   ar
    15     9    10   ar
    16    10    11   ar
    17    11    12   ar
    18    12    13   ar
    19    13    14   ar
    20    14    15   ar
    21     1    22    1
    22    22    23    1
    23    23    24   ar
    24    24    25   ar
    25    25    26   ar
    26    26    29    1
    27    29    30    2
    28    30    31    1
    29    31    32    2
    30    31    33   am
    31    33    34    1
    32    26    27   ar
    33    27    28   ar
    34    15     7   ar
    35    28    23   ar
    36    21    16   ar
    37    15    10   ar
    38    33    35    1
    39    34    36    1
