@<TRIPOS>MOLECULE
*****
 43 46 0 0 0
SMALL
GASTEIGER

@<TRIPOS>ATOM
      1 C         142.2519  140.9180  163.1859 C.3     1  UNL1        0.0799
      2 C         142.4946  141.2989  164.6163 C.ar    1  UNL1        0.0374
      3 C         141.6974  140.6524  165.7102 C.ar    1  UNL1        0.0023
      4 C         141.9399  141.0333  167.1406 C.ar    1  UNL1        0.0181
      5 C         141.1428  140.3868  168.2344 C.ar    1  UNL1        0.0082
      6 C         141.3854  140.7677  169.6649 C.ar    1  UNL1        0.0347
      7 BR        140.5882  140.1212  170.7587 Br      1  UNL1       -0.0490
      8 C         142.4251  141.7952  170.0014 C.ar    1  UNL1        0.0082
      9 C         143.2223  142.4417  168.9075 C.ar    1  UNL1        0.0197
     10 C         142.9797  142.0608  167.4772 C.ar    1  UNL1        0.0844
     11 N         143.7769  142.7073  166.3833 N.ar    1  UNL1       -0.2119
     12 C         143.5343  142.3264  164.9529 C.ar    1  UNL1        0.2211
     13 O         144.3314  142.9729  163.8590 O.3     1  UNL1       -0.4563
     14 C         143.9981  144.3649  163.4104 C.3     1  UNL1        0.2542
     15 C         141.5092  141.8516  162.2767 C.ar    1  UNL1        0.0148
     16 C         142.1885  142.4163  161.0644 C.ar    1  UNL1       -0.0014
     17 C         141.4458  143.3500  160.1552 C.ar    1  UNL1        0.0029
     18 C         140.0238  143.7189  160.4583 C.ar    1  UNL1        0.0392
     19 C         139.3446  143.1542  161.6707 C.ar    1  UNL1        0.1657
     20 C         140.0873  142.2206  162.5798 C.ar    1  UNL1        0.1702
     21 F         139.4080  141.6559  163.7921 F       1  UNL1       -0.2013
     22 O         137.9226  143.5232  161.9738 O.3     1  UNL1       -0.4692
     23 C         137.6025  144.3379  163.1919 C.3     1  UNL1        0.2526
     24 C         142.7521  139.6033  162.6647 C.3     1  UNL1        0.1162
     25 O         144.1422  140.1620  162.5897 O.3     1  UNL1       -0.3820
     26 H         144.7467  139.4809  162.2557 H       1  UNL1        0.2107
     27 C         139.5150  137.7757  164.0543 C.ar    1  UNL1        0.2271
     28 C         140.9051  138.3343  163.9793 C.ar    1  UNL1        0.0559
     29 C         141.3620  139.0447  162.7397 C.ar    1  UNL1        0.0117
     30 C         140.4288  139.1966  161.5753 C.ar    1  UNL1        0.0559
     31 C         139.0388  138.6380  161.6503 C.ar    1  UNL1        0.2271
     32 N         138.5818  137.9275  162.8898 N.ar    1  UNL1       -0.1767
     33 O         139.0581  137.0653  165.2939 O.3     1  UNL1       -0.4602
     34 C         138.1621  139.1542  166.5523 C.3     1  UNL1        0.0512
     35 C         138.0400  137.7033  166.1919 C.3     1  UNL1        0.2072
     36 O         138.1056  138.7898  160.4857 O.3     1  UNL1       -0.4602
     37 C         137.8560  140.1465  159.8965 C.3     1  UNL1        0.2072
     38 C         138.5585  140.5578  158.6367 C.3     1  UNL1        0.0512
     39 C         143.2522  138.2887  162.1435 C.3     1  UNL1        0.0491
     40 C         144.1163  138.2475  160.9181 C.3     1  UNL1        0.0750
     41 N         143.5583  138.6726  159.5923 N.3     1  UNL1       -0.2702
     42 C         142.6689  137.7437  158.8203 C.3     1  UNL1        0.0897
     43 C         143.8896  140.0266  159.0384 C.3     1  UNL1        0.0897
@<TRIPOS>BOND
     1    34    35    1
     2    35    33    1
     3    33    27    1
     4    27    28   ar
     5    28    29   ar
     6    29    24    1
     7    24    25    1
     8    24    39    1
     9    39    40    1
    10    40    41    1
    11    41    42    1
    12    41    43    1
    13    24     1    1
    14     1     2    1
    15     2     3   ar
    16     3     4   ar
    17     4     5   ar
    18     5     6   ar
    19     6     7    1
    20     6     8   ar
    21     8     9   ar
    22     9    10   ar
    23    10    11   ar
    24    11    12   ar
    25    12    13    1
    26    13    14    1
    27     1    15    1
    28    15    16   ar
    29    16    17   ar
    30    17    18   ar
    31    18    19   ar
    32    19    22    1
    33    22    23    1
    34    19    20   ar
    35    20    21    1
    36    29    30   ar
    37    30    31   ar
    38    31    36    1
    39    36    37    1
    40    37    38    1
    41    31    32   ar
    42    32    27   ar
    43    12     2   ar
    44    20    15   ar
    45    10     4   ar
    46    25    26    1
@<TRIPOS>MOLECULE
*****
 43 46 0 0 0
SMALL
GASTEIGER

@<TRIPOS>ATOM
      1 C         141.3477  140.9892  162.6220 C.3     1  UNL1        0.0799
      2 C         141.3776  140.7329  164.0997 C.ar    1  UNL1        0.0374
      3 C         141.0285  141.8321  165.0587 C.ar    1  UNL1        0.0023
      4 C         141.0584  141.5758  166.5363 C.ar    1  UNL1        0.0181
      5 C         140.7093  142.6751  167.4954 C.ar    1  UNL1        0.0082
      6 C         140.7392  142.4187  168.9731 C.ar    1  UNL1        0.0347
      7 BR        140.3901  143.5179  169.9322 Br      1  UNL1       -0.0490
      8 C         141.1183  141.0632  169.4916 C.ar    1  UNL1        0.0082
      9 C         141.4674  139.9640  168.5326 C.ar    1  UNL1        0.0197
     10 C         141.4375  140.2203  167.0550 C.ar    1  UNL1        0.0844
     11 N         141.7866  139.1211  166.0959 N.ar    1  UNL1       -0.2119
     12 C         141.7567  139.3774  164.6182 C.ar    1  UNL1        0.2211
     13 O         142.1058  138.2782  163.6591 O.3     1  UNL1       -0.4563
     14 C         141.1154  137.1880  163.3751 C.3     1  UNL1        0.2542
     15 C         140.2077  140.4740  161.7943 C.ar    1  UNL1        0.0148
     16 C         138.7964  140.8282  162.1586 C.ar    1  UNL1       -0.0014
     17 C         137.6564  140.3130  161.3309 C.ar    1  UNL1        0.0029
     18 C         137.9277  139.4436  160.1391 C.ar    1  UNL1        0.0392
     19 C         139.3392  139.0895  159.7748 C.ar    1  UNL1        0.1657
     20 C         140.4791  139.6047  160.6025 C.ar    1  UNL1        0.1702
     21 F         141.8904  139.2505  160.2382 F       1  UNL1       -0.2013
     22 O         139.6105  138.2201  158.5830 O.3     1  UNL1       -0.4692
     23 C         139.9436  138.8438  157.2600 C.3     1  UNL1        0.2526
     24 C         142.4578  141.7608  161.9720 C.3     1  UNL1        0.1162
     25 O         143.4290  140.6820  162.3501 O.3     1  UNL1       -0.3820
     26 H         144.3151  140.9199  162.0354 H       1  UNL1        0.2107
     27 C         140.2785  144.2413  159.7702 C.ar    1  UNL1        0.2271
     28 C         141.2497  143.1625  160.1483 C.ar    1  UNL1        0.0559
     29 C         141.4865  142.8396  161.5939 C.ar    1  UNL1        0.0117
     30 C         140.7522  143.5954  162.6612 C.ar    1  UNL1        0.0559
     31 C         139.7809  144.6742  162.2831 C.ar    1  UNL1        0.2271
     32 N         139.5441  144.9971  160.8376 N.ar    1  UNL1       -0.1767
     33 O         140.0417  144.5642  158.3246 O.3     1  UNL1       -0.4602
     34 C         142.0554  145.9089  157.3829 C.3     1  UNL1        0.0512
     35 C         140.6001  145.8262  157.7368 C.3     1  UNL1        0.2072
     36 O         139.0465  145.4300  163.3506 O.3     1  UNL1       -0.4602
     37 C         138.6330  144.7336  164.6131 C.3     1  UNL1        0.2072
     38 C         137.7680  143.5100  164.5459 C.3     1  UNL1        0.0512
     39 C         143.5678  142.5323  161.3220 C.3     1  UNL1        0.0491
     40 C         144.6669  143.1151  162.1601 C.3     1  UNL1        0.0750
     41 N         144.3598  143.6705  163.5192 N.3     1  UNL1       -0.2702
     42 C         143.7950  145.0535  163.6541 C.3     1  UNL1        0.0897
     43 C         144.6174  142.8428  164.7433 C.3     1  UNL1        0.0897
@<TRIPOS>BOND
     1    34    35    1
     2    35    33    1
     3    33    27    1
     4    27    28   ar
     5    28    29   ar
     6    29    24    1
     7    24    25    1
     8    24    39    1
     9    39    40    1
    10    40    41    1
    11    41    42    1
    12    41    43    1
    13    24     1    1
    14     1     2    1
    15     2     3   ar
    16     3     4   ar
    17     4     5   ar
    18     5     6   ar
    19     6     7    1
    20     6     8   ar
    21     8     9   ar
    22     9    10   ar
    23    10    11   ar
    24    11    12   ar
    25    12    13    1
    26    13    14    1
    27     1    15    1
    28    15    16   ar
    29    16    17   ar
    30    17    18   ar
    31    18    19   ar
    32    19    22    1
    33    22    23    1
    34    19    20   ar
    35    20    21    1
    36    29    30   ar
    37    30    31   ar
    38    31    36    1
    39    36    37    1
    40    37    38    1
    41    31    32   ar
    42    32    27   ar
    43    12     2   ar
    44    20    15   ar
    45    10     4   ar
    46    25    26    1
@<TRIPOS>MOLECULE
*****
 43 46 0 0 0
SMALL
GASTEIGER

@<TRIPOS>ATOM
      1 C         142.1886  141.0602  163.1184 C.3     1  UNL1        0.0799
      2 C         142.4262  141.3994  164.5602 C.ar    1  UNL1        0.0374
      3 C         141.6034  140.7449  165.6301 C.ar    1  UNL1        0.0023
      4 C         141.8410  141.0841  167.0717 C.ar    1  UNL1        0.0181
      5 C         141.0183  140.4296  168.1417 C.ar    1  UNL1        0.0082
      6 C         141.2559  140.7689  169.5834 C.ar    1  UNL1        0.0347
      7 BR        140.4331  140.1144  170.6533 Br      1  UNL1       -0.0490
      8 C         142.3161  141.7627  169.9551 C.ar    1  UNL1        0.0082
      9 C         143.1388  142.4172  168.8852 C.ar    1  UNL1        0.0197
     10 C         142.9013  142.0780  167.4436 C.ar    1  UNL1        0.0844
     11 N         143.7240  142.7325  166.3736 N.ar    1  UNL1       -0.2119
     12 C         143.4864  142.3932  164.9319 C.ar    1  UNL1        0.2211
     13 O         144.3091  143.0477  163.8620 O.3     1  UNL1       -0.4563
     14 C         144.0456  144.4744  163.4806 C.3     1  UNL1        0.2542
     15 C         141.4850  142.0374  162.2241 C.ar    1  UNL1        0.0148
     16 C         142.1989  142.6186  161.0398 C.ar    1  UNL1       -0.0014
     17 C         141.4953  143.5959  160.1453 C.ar    1  UNL1        0.0029
     18 C         140.0779  143.9920  160.4352 C.ar    1  UNL1        0.0392
     19 C         139.3640  143.4108  161.6196 C.ar    1  UNL1        0.1657
     20 C         140.0676  142.4335  162.5140 C.ar    1  UNL1        0.1702
     21 F         139.3537  141.8523  163.6983 F       1  UNL1       -0.2013
     22 O         137.9466  143.8068  161.9095 O.3     1  UNL1       -0.4692
     23 C         137.5963  144.4273  163.2296 C.3     1  UNL1        0.2526
     24 C         142.6545  139.7436  162.5711 C.3     1  UNL1        0.1162
     25 O         144.0748  140.2227  162.6279 O.3     1  UNL1       -0.3820
     26 H         144.6651  139.5233  162.3065 H       1  UNL1        0.2107
     27 C         139.0401  138.8832  161.1764 C.ar    1  UNL1        0.2271
     28 C         140.4604  139.3623  161.2332 C.ar    1  UNL1        0.0559
     29 C         141.2343  139.2645  162.5144 C.ar    1  UNL1        0.0117
     30 C         140.5878  138.6876  163.7388 C.ar    1  UNL1        0.0559
     31 C         139.1675  138.2085  163.6820 C.ar    1  UNL1        0.2271
     32 N         138.3937  138.3063  162.4008 N.ar    1  UNL1       -0.1767
     33 O         138.2662  138.9810  159.8951 O.3     1  UNL1       -0.4602
     34 C         139.3220  139.3548  157.5508 C.3     1  UNL1        0.0512
     35 C         138.7258  139.9096  158.8104 C.3     1  UNL1        0.2072
     36 O         138.5211  137.6316  164.9065 O.3     1  UNL1       -0.4602
     37 C         138.1863  138.5207  166.0674 C.3     1  UNL1        0.2072
     38 C         137.3550  137.9946  167.1997 C.3     1  UNL1        0.0512
     39 C         143.1205  138.4270  162.0239 C.3     1  UNL1        0.0491
     40 C         144.0449  138.3905  160.8431 C.3     1  UNL1        0.0750
     41 N         143.5533  138.8189  159.4922 N.3     1  UNL1       -0.2702
     42 C         142.7068  137.8903  158.6731 C.3     1  UNL1        0.0897
     43 C         143.9083  140.1758  158.9605 C.3     1  UNL1        0.0897
@<TRIPOS>BOND
     1    34    35    1
     2    35    33    1
     3    33    27    1
     4    27    28   ar
     5    28    29   ar
     6    29    24    1
     7    24    25    1
     8    24    39    1
     9    39    40    1
    10    40    41    1
    11    41    42    1
    12    41    43    1
    13    24     1    1
    14     1     2    1
    15     2     3   ar
    16     3     4   ar
    17     4     5   ar
    18     5     6   ar
    19     6     7    1
    20     6     8   ar
    21     8     9   ar
    22     9    10   ar
    23    10    11   ar
    24    11    12   ar
    25    12    13    1
    26    13    14    1
    27     1    15    1
    28    15    16   ar
    29    16    17   ar
    30    17    18   ar
    31    18    19   ar
    32    19    22    1
    33    22    23    1
    34    19    20   ar
    35    20    21    1
    36    29    30   ar
    37    30    31   ar
    38    31    36    1
    39    36    37    1
    40    37    38    1
    41    31    32   ar
    42    32    27   ar
    43    12     2   ar
    44    20    15   ar
    45    10     4   ar
    46    25    26    1
@<TRIPOS>MOLECULE
*****
 43 46 0 0 0
SMALL
GASTEIGER

@<TRIPOS>ATOM
      1 C         141.2755  140.9195  162.5540 C.3     1  UNL1        0.0799
      2 C         141.3406  140.6785  164.0331 C.ar    1  UNL1        0.0374
      3 C         140.9970  141.7825  164.9887 C.ar    1  UNL1        0.0023
      4 C         141.0621  141.5417  166.4677 C.ar    1  UNL1        0.0181
      5 C         140.7184  142.6457  167.4233 C.ar    1  UNL1        0.0082
      6 C         140.7835  142.4047  168.9024 C.ar    1  UNL1        0.0347
      7 BR        140.4399  143.5088  169.8579 Br      1  UNL1       -0.0490
      8 C         141.1923  141.0599  169.4259 C.ar    1  UNL1        0.0082
      9 C         141.5360  139.9558  168.4704 C.ar    1  UNL1        0.0197
     10 C         141.4709  140.1967  166.9913 C.ar    1  UNL1        0.0844
     11 N         141.8145  139.0927  166.0358 N.ar    1  UNL1       -0.2119
     12 C         141.7494  139.3336  164.5567 C.ar    1  UNL1        0.2211
     13 O         142.0931  138.2296  163.6011 O.3     1  UNL1       -0.4563
     14 C         141.0891  137.1555  163.3037 C.3     1  UNL1        0.2542
     15 C         140.0992  140.4261  161.7648 C.ar    1  UNL1        0.0148
     16 C         138.7063  140.7789  162.1951 C.ar    1  UNL1       -0.0014
     17 C         137.5298  140.2855  161.4059 C.ar    1  UNL1        0.0029
     18 C         137.7465  139.4394  160.1865 C.ar    1  UNL1        0.0392
     19 C         139.1395  139.0866  159.7562 C.ar    1  UNL1        0.1657
     20 C         140.3158  139.5800  160.5453 C.ar    1  UNL1        0.1702
     21 F         141.7088  139.2272  160.1150 F       1  UNL1       -0.2013
     22 O         139.3561  138.2405  158.5367 O.3     1  UNL1       -0.4692
     23 C         139.7681  138.8798  157.2438 C.3     1  UNL1        0.2526
     24 C         142.3868  141.6538  161.8641 C.3     1  UNL1        0.1162
     25 O         143.3492  140.5763  162.2676 O.3     1  UNL1       -0.3820
     26 H         144.2342  140.7917  161.9339 H       1  UNL1        0.2107
     27 C         139.8061  144.6591  162.1043 C.ar    1  UNL1        0.2271
     28 C         140.7685  143.5816  162.5078 C.ar    1  UNL1        0.0559
     29 C         141.4243  142.7312  161.4606 C.ar    1  UNL1        0.0117
     30 C         141.1177  142.9582  160.0100 C.ar    1  UNL1        0.0559
     31 C         140.1552  144.0357  159.6065 C.ar    1  UNL1        0.2271
     32 N         139.4994  144.8861  160.6537 N.ar    1  UNL1       -0.1767
     33 O         139.1502  145.5096  163.1516 O.3     1  UNL1       -0.4602
     34 C         137.8607  143.8271  164.6537 C.3     1  UNL1        0.0512
     35 C         138.8581  144.9378  164.5072 C.3     1  UNL1        0.2072
     36 O         139.8486  144.2627  158.1558 O.3     1  UNL1       -0.4602
     37 C         139.3275  143.1357  157.3142 C.3     1  UNL1        0.2072
     38 C         137.9974  142.5177  157.6285 C.3     1  UNL1        0.0512
     39 C         143.4980  142.3880  161.1742 C.3     1  UNL1        0.0491
     40 C         144.6481  142.9284  161.9712 C.3     1  UNL1        0.0750
     41 N         144.4039  143.5473  163.3155 N.3     1  UNL1       -0.2702
     42 C         144.7009  142.7706  164.5639 C.3     1  UNL1        0.0897
     43 C         143.8628  144.9430  163.4116 C.3     1  UNL1        0.0897
@<TRIPOS>BOND
     1    34    35    1
     2    35    33    1
     3    33    27    1
     4    27    28   ar
     5    28    29   ar
     6    29    24    1
     7    24    25    1
     8    24    39    1
     9    39    40    1
    10    40    41    1
    11    41    42    1
    12    41    43    1
    13    24     1    1
    14     1     2    1
    15     2     3   ar
    16     3     4   ar
    17     4     5   ar
    18     5     6   ar
    19     6     7    1
    20     6     8   ar
    21     8     9   ar
    22     9    10   ar
    23    10    11   ar
    24    11    12   ar
    25    12    13    1
    26    13    14    1
    27     1    15    1
    28    15    16   ar
    29    16    17   ar
    30    17    18   ar
    31    18    19   ar
    32    19    22    1
    33    22    23    1
    34    19    20   ar
    35    20    21    1
    36    29    30   ar
    37    30    31   ar
    38    31    36    1
    39    36    37    1
    40    37    38    1
    41    31    32   ar
    42    32    27   ar
    43    12     2   ar
    44    20    15   ar
    45    10     4   ar
    46    25    26    1
@<TRIPOS>MOLECULE
*****
 43 46 0 0 0
SMALL
GASTEIGER

@<TRIPOS>ATOM
      1 C         140.6975  140.5613  163.0983 C.3     1  UNL1        0.0799
      2 C         140.4074  140.4946  164.5685 C.ar    1  UNL1        0.0374
      3 C         140.6317  141.7000  165.4326 C.ar    1  UNL1        0.0023
      4 C         140.3417  141.6334  166.9028 C.ar    1  UNL1        0.0181
      5 C         140.5660  142.8388  167.7669 C.ar    1  UNL1        0.0082
      6 C         140.2760  142.7722  169.2371 C.ar    1  UNL1        0.0347
      7 BR        140.5003  143.9776  170.1012 Br      1  UNL1       -0.0490
      8 C         139.7617  141.5001  169.8431 C.ar    1  UNL1        0.0082
      9 C         139.5374  140.2947  168.9790 C.ar    1  UNL1        0.0197
     10 C         139.8274  140.3613  167.5089 C.ar    1  UNL1        0.0844
     11 N         139.6031  139.1559  166.6448 N.ar    1  UNL1       -0.2119
     12 C         139.8931  139.2226  165.1746 C.ar    1  UNL1        0.2211
     13 O         139.6688  138.0172  164.3105 O.3     1  UNL1       -0.4563
     14 C         140.6919  136.9208  164.2724 C.3     1  UNL1        0.2542
     15 C         141.8384  139.7761  162.5225 C.ar    1  UNL1        0.0148
     16 C         143.1780  139.7953  163.1971 C.ar    1  UNL1       -0.0014
     17 C         144.3191  139.0101  162.6214 C.ar    1  UNL1        0.0029
     18 C         144.1205  138.2055  161.3711 C.ar    1  UNL1        0.0392
     19 C         142.7808  138.1863  160.6965 C.ar    1  UNL1        0.1657
     20 C         141.6398  138.9716  161.2722 C.ar    1  UNL1        0.1702
     21 F         140.3003  138.9523  160.5976 F       1  UNL1       -0.2013
     22 O         142.5822  137.3818  159.4461 O.3     1  UNL1       -0.4692
     23 C         142.6225  138.0555  158.1065 C.3     1  UNL1        0.2526
     24 C         139.8465  141.4133  162.2038 C.3     1  UNL1        0.1162
     25 O         138.6465  140.5854  162.5571 O.3     1  UNL1       -0.3820
     26 H         137.8690  140.9264  162.0879 H       1  UNL1        0.2107
     27 C         142.7621  143.0794  160.0889 C.ar    1  UNL1        0.2271
     28 C         141.5621  142.2516  160.4421 C.ar    1  UNL1        0.0559
     29 C         141.0464  142.2411  161.8506 C.ar    1  UNL1        0.0117
     30 C         141.7307  143.0584  162.9059 C.ar    1  UNL1        0.0559
     31 C         142.9307  143.8862  162.5527 C.ar    1  UNL1        0.2271
     32 N         143.4464  143.8967  161.1442 N.ar    1  UNL1       -0.1767
     33 O         143.2778  143.0898  158.6803 O.3     1  UNL1       -0.4602
     34 C         141.6150  142.6613  156.7306 C.3     1  UNL1        0.0512
     35 C         142.6851  142.1662  157.6578 C.3     1  UNL1        0.2072
     36 O         143.6150  144.7036  163.6081 O.3     1  UNL1       -0.4602
     37 C         144.1200  144.0443  164.8572 C.3     1  UNL1        0.2072
     38 C         144.8334  142.7274  164.7744 C.3     1  UNL1        0.0512
     39 C         138.9955  142.2652  161.3094 C.3     1  UNL1        0.0491
     40 C         137.9209  143.1304  161.8981 C.3     1  UNL1        0.0750
     41 N         138.2717  144.1711  162.9198 N.3     1  UNL1       -0.2702
     42 C         139.0416  145.3923  162.5127 C.3     1  UNL1        0.0897
     43 C         137.8525  143.9907  164.3487 C.3     1  UNL1        0.0897
@<TRIPOS>BOND
     1    34    35    1
     2    35    33    1
     3    33    27    1
     4    27    28   ar
     5    28    29   ar
     6    29    24    1
     7    24    25    1
     8    24    39    1
     9    39    40    1
    10    40    41    1
    11    41    42    1
    12    41    43    1
    13    24     1    1
    14     1     2    1
    15     2     3   ar
    16     3     4   ar
    17     4     5   ar
    18     5     6   ar
    19     6     7    1
    20     6     8   ar
    21     8     9   ar
    22     9    10   ar
    23    10    11   ar
    24    11    12   ar
    25    12    13    1
    26    13    14    1
    27     1    15    1
    28    15    16   ar
    29    16    17   ar
    30    17    18   ar
    31    18    19   ar
    32    19    22    1
    33    22    23    1
    34    19    20   ar
    35    20    21    1
    36    29    30   ar
    37    30    31   ar
    38    31    36    1
    39    36    37    1
    40    37    38    1
    41    31    32   ar
    42    32    27   ar
    43    12     2   ar
    44    20    15   ar
    45    10     4   ar
    46    25    26    1
@<TRIPOS>MOLECULE
*****
 43 46 0 0 0
SMALL
GASTEIGER

@<TRIPOS>ATOM
      1 C         141.6050  142.0521  162.6714 C.3     1  UNL1        0.0799
      2 C         142.0206  142.1309  164.1105 C.ar    1  UNL1        0.0374
      3 C         141.0139  141.8904  165.1962 C.ar    1  UNL1        0.0023
      4 C         141.4294  141.9691  166.6353 C.ar    1  UNL1        0.0181
      5 C         140.4227  141.7286  167.7209 C.ar    1  UNL1        0.0082
      6 C         140.8383  141.8074  169.1601 C.ar    1  UNL1        0.0347
      7 BR        139.8316  141.5669  170.2457 Br      1  UNL1       -0.0490
      8 C         142.2607  142.1266  169.5135 C.ar    1  UNL1        0.0082
      9 C         143.2674  142.3671  168.4279 C.ar    1  UNL1        0.0197
     10 C         142.8518  142.2884  166.9888 C.ar    1  UNL1        0.0844
     11 N         143.8586  142.5289  165.9032 N.ar    1  UNL1       -0.2119
     12 C         143.4430  142.4501  164.4640 C.ar    1  UNL1        0.2211
     13 O         144.4497  142.6906  163.3784 O.3     1  UNL1       -0.4563
     14 C         145.6617  141.8132  163.2717 C.3     1  UNL1        0.2542
     15 C         142.4150  141.2460  161.6998 C.ar    1  UNL1        0.0148
     16 C         142.6972  139.7992  161.9777 C.ar    1  UNL1       -0.0014
     17 C         143.5072  138.9930  161.0061 C.ar    1  UNL1        0.0029
     18 C         144.0350  139.6336  159.7567 C.ar    1  UNL1        0.0392
     19 C         143.7528  141.0804  159.4788 C.ar    1  UNL1        0.1657
     20 C         142.9428  141.8865  160.4504 C.ar    1  UNL1        0.1702
     21 F         142.6606  143.3333  160.1725 F       1  UNL1       -0.2013
     22 O         144.2806  141.7209  158.2294 O.3     1  UNL1       -0.4692
     23 C         144.9590  140.8834  157.1862 C.3     1  UNL1        0.2526
     24 C         140.3793  142.7796  162.2039 C.3     1  UNL1        0.1162
     25 O         141.0161  144.0875  162.5695 O.3     1  UNL1       -0.3820
     26 H         140.4062  144.8130  162.3632 H       1  UNL1        0.2107
     27 C         138.7906  139.8578  160.0384 C.ar    1  UNL1        0.2271
     28 C         139.4274  141.1658  160.4040 C.ar    1  UNL1        0.0559
     29 C         139.7425  141.4716  161.8383 C.ar    1  UNL1        0.0117
     30 C         139.4207  140.4695  162.9069 C.ar    1  UNL1        0.0559
     31 C         138.7838  139.1615  162.5413 C.ar    1  UNL1        0.2271
     32 N         138.4688  138.8557  161.1071 N.ar    1  UNL1       -0.1767
     33 O         138.4756  139.5520  158.6040 O.3     1  UNL1       -0.4602
     34 C         140.8187  138.5359  158.1273 C.3     1  UNL1        0.0512
     35 C         139.5837  139.2365  157.6436 C.3     1  UNL1        0.2072
     36 O         138.4620  138.1593  163.6101 O.3     1  UNL1       -0.4602
     37 C         138.9554  138.3719  165.0106 C.3     1  UNL1        0.2072
     38 C         138.1764  139.2364  165.9571 C.3     1  UNL1        0.0512
     39 C         139.1536  143.5070  161.7363 C.3     1  UNL1        0.0491
     40 C         138.4232  144.4241  162.6719 C.3     1  UNL1        0.0750
     41 N         138.2420  144.0391  164.1103 N.3     1  UNL1       -0.2702
     42 C         137.4807  142.7959  164.4637 C.3     1  UNL1        0.0897
     43 C         138.8219  144.8972  165.1952 C.3     1  UNL1        0.0897
@<TRIPOS>BOND
     1    34    35    1
     2    35    33    1
     3    33    27    1
     4    27    28   ar
     5    28    29   ar
     6    29    24    1
     7    24    25    1
     8    24    39    1
     9    39    40    1
    10    40    41    1
    11    41    42    1
    12    41    43    1
    13    24     1    1
    14     1     2    1
    15     2     3   ar
    16     3     4   ar
    17     4     5   ar
    18     5     6   ar
    19     6     7    1
    20     6     8   ar
    21     8     9   ar
    22     9    10   ar
    23    10    11   ar
    24    11    12   ar
    25    12    13    1
    26    13    14    1
    27     1    15    1
    28    15    16   ar
    29    16    17   ar
    30    17    18   ar
    31    18    19   ar
    32    19    22    1
    33    22    23    1
    34    19    20   ar
    35    20    21    1
    36    29    30   ar
    37    30    31   ar
    38    31    36    1
    39    36    37    1
    40    37    38    1
    41    31    32   ar
    42    32    27   ar
    43    12     2   ar
    44    20    15   ar
    45    10     4   ar
    46    25    26    1
@<TRIPOS>MOLECULE
*****
 43 46 0 0 0
SMALL
GASTEIGER

@<TRIPOS>ATOM
      1 C         141.4534  140.8854  162.9637 C.3     1  UNL1        0.0799
      2 C         141.9500  141.2501  164.3314 C.ar    1  UNL1        0.0374
      3 C         140.9807  141.6867  165.3896 C.ar    1  UNL1        0.0023
      4 C         141.4772  142.0514  166.7572 C.ar    1  UNL1        0.0181
      5 C         140.5079  142.4879  167.8154 C.ar    1  UNL1        0.0082
      6 C         141.0045  142.8526  169.1830 C.ar    1  UNL1        0.0347
      7 BR        140.0352  143.2891  170.2412 Br      1  UNL1       -0.0490
      8 C         142.4705  142.7807  169.4924 C.ar    1  UNL1        0.0082
      9 C         143.4399  142.3442  168.4342 C.ar    1  UNL1        0.0197
     10 C         142.9433  141.9795  167.0667 C.ar    1  UNL1        0.0844
     11 N         143.9126  141.5430  166.0085 N.ar    1  UNL1       -0.2119
     12 C         143.4160  141.1783  164.6408 C.ar    1  UNL1        0.2211
     13 O         144.3854  140.7417  163.5826 O.3     1  UNL1       -0.4563
     14 C         145.5334  141.6301  163.2047 C.3     1  UNL1        0.2542
     15 C         142.0863  141.4959  161.7485 C.ar    1  UNL1        0.0148
     16 C         142.1163  142.9869  161.5875 C.ar    1  UNL1       -0.0014
     17 C         142.7492  143.5974  160.3723 C.ar    1  UNL1        0.0029
     18 C         143.3520  142.7169  159.3181 C.ar    1  UNL1        0.0392
     19 C         143.3219  141.2258  159.4792 C.ar    1  UNL1        0.1657
     20 C         142.6891  140.6153  160.6944 C.ar    1  UNL1        0.1702
     21 F         142.6590  139.1243  160.8554 F       1  UNL1       -0.2013
     22 O         143.9247  140.3452  158.4250 O.3     1  UNL1       -0.4692
     23 C         144.8006  140.9397  157.3621 C.3     1  UNL1        0.2526
     24 C         140.3239  139.9103  162.8114 C.3     1  UNL1        0.1162
     25 O         141.1611  138.8410  163.4483 O.3     1  UNL1       -0.3820
     26 H         140.6529  138.0159  163.4927 H       1  UNL1        0.2107
     27 C         138.3850  142.0147  160.0615 C.ar    1  UNL1        0.2271
     28 C         139.2222  140.9454  160.6984 C.ar    1  UNL1        0.0559
     29 C         139.4866  140.9795  162.1745 C.ar    1  UNL1        0.0117
     30 C         138.9138  142.0830  163.0136 C.ar    1  UNL1        0.0559
     31 C         138.0766  143.1523  162.3767 C.ar    1  UNL1        0.2271
     32 N         137.8121  143.1181  160.9006 N.ar    1  UNL1       -0.1767
     33 O         138.1205  141.9805  158.5853 O.3     1  UNL1       -0.4602
     34 C         139.8819  143.8142  158.0514 C.3     1  UNL1        0.0512
     35 C         139.0968  142.6062  157.6338 C.3     1  UNL1        0.2072
     36 O         137.5037  144.2558  163.2160 O.3     1  UNL1       -0.4602
     37 C         137.6399  144.2103  164.7091 C.3     1  UNL1        0.2072
     38 C         138.7831  144.9126  165.3797 C.3     1  UNL1        0.0512
     39 C         139.1943  138.9351  162.6590 C.3     1  UNL1        0.0491
     40 C         139.0007  137.8473  163.6734 C.3     1  UNL1        0.0750
     41 N         138.4852  138.1810  165.0420 N.3     1  UNL1       -0.2702
     42 C         138.2836  137.0921  166.0537 C.3     1  UNL1        0.0897
     43 C         138.1714  139.6037  165.3989 C.3     1  UNL1        0.0897
@<TRIPOS>BOND
     1    34    35    1
     2    35    33    1
     3    33    27    1
     4    27    28   ar
     5    28    29   ar
     6    29    24    1
     7    24    25    1
     8    24    39    1
     9    39    40    1
    10    40    41    1
    11    41    42    1
    12    41    43    1
    13    24     1    1
    14     1     2    1
    15     2     3   ar
    16     3     4   ar
    17     4     5   ar
    18     5     6   ar
    19     6     7    1
    20     6     8   ar
    21     8     9   ar
    22     9    10   ar
    23    10    11   ar
    24    11    12   ar
    25    12    13    1
    26    13    14    1
    27     1    15    1
    28    15    16   ar
    29    16    17   ar
    30    17    18   ar
    31    18    19   ar
    32    19    22    1
    33    22    23    1
    34    19    20   ar
    35    20    21    1
    36    29    30   ar
    37    30    31   ar
    38    31    36    1
    39    36    37    1
    40    37    38    1
    41    31    32   ar
    42    32    27   ar
    43    12     2   ar
    44    20    15   ar
    45    10     4   ar
    46    25    26    1
@<TRIPOS>MOLECULE
*****
 43 46 0 0 0
SMALL
GASTEIGER

@<TRIPOS>ATOM
      1 C         140.4131  141.2745  162.5247 C.3     1  UNL1        0.0799
      2 C         140.3569  141.7702  163.9394 C.ar    1  UNL1        0.0374
      3 C         141.4942  141.4924  164.8771 C.ar    1  UNL1        0.0023
      4 C         141.4381  141.9880  166.2917 C.ar    1  UNL1        0.0181
      5 C         142.5754  141.7102  167.2295 C.ar    1  UNL1        0.0082
      6 C         142.5192  142.2059  168.6441 C.ar    1  UNL1        0.0347
      7 BR        143.6565  141.9281  169.5819 Br      1  UNL1       -0.0490
      8 C         141.3257  142.9792  169.1210 C.ar    1  UNL1        0.0082
      9 C         140.1884  143.2570  168.1833 C.ar    1  UNL1        0.0197
     10 C         140.2445  142.7614  166.7687 C.ar    1  UNL1        0.0844
     11 N         139.1072  143.0392  165.8310 N.ar    1  UNL1       -0.2119
     12 C         139.1634  142.5435  164.4163 C.ar    1  UNL1        0.2211
     13 O         138.0261  142.8213  163.4786 O.3     1  UNL1       -0.4563
     14 C         137.7571  144.2242  163.0207 C.3     1  UNL1        0.2542
     15 C         140.8833  142.1848  161.4292 C.ar    1  UNL1        0.0148
     16 C         142.2930  142.6974  161.4334 C.ar    1  UNL1       -0.0014
     17 C         142.7633  143.6077  160.3378 C.ar    1  UNL1        0.0029
     18 C         141.8239  144.0055  159.2382 C.ar    1  UNL1        0.0392
     19 C         140.4142  143.4929  159.2340 C.ar    1  UNL1        0.1657
     20 C         139.9439  142.5826  160.3295 C.ar    1  UNL1        0.1702
     21 F         138.5342  142.0700  160.3254 F       1  UNL1       -0.2013
     22 O         139.4748  143.8906  158.1343 O.3     1  UNL1       -0.4692
     23 C         139.6648  143.3429  156.7509 C.3     1  UNL1        0.2526
     24 C         139.9990  139.8686  162.2056 C.3     1  UNL1        0.1162
     25 O         138.5940  140.1877  162.6229 O.3     1  UNL1       -0.3820
     26 H         138.0387  139.3992  162.5183 H       1  UNL1        0.2107
     27 C         143.1105  138.9068  159.9377 C.ar    1  UNL1        0.2271
     28 C         141.7055  139.2259  160.3550 C.ar    1  UNL1        0.0559
     29 C         141.4040  139.5495  161.7883 C.ar    1  UNL1        0.0117
     30 C         142.5075  139.5539  162.8043 C.ar    1  UNL1        0.0559
     31 C         143.9125  139.2349  162.3870 C.ar    1  UNL1        0.2271
     32 N         144.2140  138.9113  160.9537 N.ar    1  UNL1       -0.1767
     33 O         143.4120  138.5832  158.5044 O.3     1  UNL1       -0.4602
     34 C         142.6546  137.1537  156.4715 C.3     1  UNL1        0.0512
     35 C         142.3230  138.0794  157.6042 C.3     1  UNL1        0.2072
     36 O         145.0160  139.2393  163.4031 O.3     1  UNL1       -0.4602
     37 C         145.2414  140.4496  164.2601 C.3     1  UNL1        0.2072
     38 C         145.7118  141.7314  163.6390 C.3     1  UNL1        0.0512
     39 C         139.5849  138.4626  161.8865 C.3     1  UNL1        0.0491
     40 C         138.9774  137.5995  162.9523 C.3     1  UNL1        0.0750
     41 N         139.5304  137.6281  164.3463 N.3     1  UNL1       -0.2702
     42 C         138.7275  138.2331  165.4595 C.3     1  UNL1        0.0897
     43 C         140.8864  137.0516  164.6272 C.3     1  UNL1        0.0897
@<TRIPOS>BOND
     1    34    35    1
     2    35    33    1
     3    33    27    1
     4    27    28   ar
     5    28    29   ar
     6    29    24    1
     7    24    25    1
     8    24    39    1
     9    39    40    1
    10    40    41    1
    11    41    42    1
    12    41    43    1
    13    24     1    1
    14     1     2    1
    15     2     3   ar
    16     3     4   ar
    17     4     5   ar
    18     5     6   ar
    19     6     7    1
    20     6     8   ar
    21     8     9   ar
    22     9    10   ar
    23    10    11   ar
    24    11    12   ar
    25    12    13    1
    26    13    14    1
    27     1    15    1
    28    15    16   ar
    29    16    17   ar
    30    17    18   ar
    31    18    19   ar
    32    19    22    1
    33    22    23    1
    34    19    20   ar
    35    20    21    1
    36    29    30   ar
    37    30    31   ar
    38    31    36    1
    39    36    37    1
    40    37    38    1
    41    31    32   ar
    42    32    27   ar
    43    12     2   ar
    44    20    15   ar
    45    10     4   ar
    46    25    26    1
@<TRIPOS>MOLECULE
*****
 43 46 0 0 0
SMALL
GASTEIGER

@<TRIPOS>ATOM
      1 C         141.4117  142.4202  162.5321 C.3     1  UNL1        0.0799
      2 C         141.8782  142.3457  163.9558 C.ar    1  UNL1        0.0374
      3 C         141.0026  141.7190  165.0001 C.ar    1  UNL1        0.0023
      4 C         141.4690  141.6445  166.4238 C.ar    1  UNL1        0.0181
      5 C         140.5934  141.0178  167.4681 C.ar    1  UNL1        0.0082
      6 C         141.0599  140.9433  168.8918 C.ar    1  UNL1        0.0347
      7 BR        140.1844  140.3166  169.9361 Br      1  UNL1       -0.0490
      8 C         142.4019  141.4956  169.2711 C.ar    1  UNL1        0.0082
      9 C         143.2775  142.1224  168.2269 C.ar    1  UNL1        0.0197
     10 C         142.8111  142.1968  166.8032 C.ar    1  UNL1        0.0844
     11 N         143.6866  142.8236  165.7589 N.ar    1  UNL1       -0.2119
     12 C         143.2201  142.8980  164.3352 C.ar    1  UNL1        0.2211
     13 O         144.0957  143.5248  163.2909 O.3     1  UNL1       -0.4563
     14 C         144.0087  144.9986  163.0251 C.3     1  UNL1        0.2542
     15 C         142.2735  141.8771  161.4311 C.ar    1  UNL1        0.0148
     16 C         142.6511  142.7526  160.2731 C.ar    1  UNL1       -0.0014
     17 C         143.5130  142.2096  159.1720 C.ar    1  UNL1        0.0029
     18 C         143.9973  140.7910  159.2290 C.ar    1  UNL1        0.0392
     19 C         143.6197  139.9156  160.3871 C.ar    1  UNL1        0.1657
     20 C         142.7578  140.4586  161.4881 C.ar    1  UNL1        0.1702
     21 F         142.3803  139.5831  162.6460 F       1  UNL1       -0.2013
     22 O         144.1040  138.4970  160.4441 O.3     1  UNL1       -0.4692
     23 C         143.1383  137.3663  160.2467 C.3     1  UNL1        0.2526
     24 C         140.0833  143.0377  162.2094 C.3     1  UNL1        0.1162
     25 O         140.5986  144.3760  162.6491 O.3     1  UNL1       -0.3820
     26 H         139.8998  145.0410  162.5471 H       1  UNL1        0.2107
     27 C         138.8242  139.2764  162.3408 C.ar    1  UNL1        0.2271
     28 C         139.3395  140.6147  162.7804 C.ar    1  UNL1        0.0559
     29 C         139.5679  141.6993  161.7698 C.ar    1  UNL1        0.0117
     30 C         139.2810  141.4456  160.3196 C.ar    1  UNL1        0.0559
     31 C         138.7656  140.1073  159.8799 C.ar    1  UNL1        0.2271
     32 N         138.5372  139.0227  160.8905 N.ar    1  UNL1       -0.1767
     33 O         138.5958  138.1917  163.3515 O.3     1  UNL1       -0.4602
     34 C         138.2295  138.8160  165.8466 C.3     1  UNL1        0.0512
     35 C         139.1299  138.3408  164.7452 C.3     1  UNL1        0.2072
     36 O         138.4787  139.8536  158.4296 O.3     1  UNL1       -0.4602
     37 C         137.6248  140.8133  157.6550 C.3     1  UNL1        0.2072
     38 C         137.6288  140.7788  156.1554 C.3     1  UNL1        0.0512
     39 C         138.7549  143.6552  161.8868 C.3     1  UNL1        0.0491
     40 C         138.0280  144.4563  162.9259 C.3     1  UNL1        0.0750
     41 N         138.0433  144.0151  164.3595 N.3     1  UNL1       -0.2702
     42 C         137.5131  142.6628  164.7337 C.3     1  UNL1        0.0897
     43 C         138.5889  144.9262  165.4188 C.3     1  UNL1        0.0897
@<TRIPOS>BOND
     1    34    35    1
     2    35    33    1
     3    33    27    1
     4    27    28   ar
     5    28    29   ar
     6    29    24    1
     7    24    25    1
     8    24    39    1
     9    39    40    1
    10    40    41    1
    11    41    42    1
    12    41    43    1
    13    24     1    1
    14     1     2    1
    15     2     3   ar
    16     3     4   ar
    17     4     5   ar
    18     5     6   ar
    19     6     7    1
    20     6     8   ar
    21     8     9   ar
    22     9    10   ar
    23    10    11   ar
    24    11    12   ar
    25    12    13    1
    26    13    14    1
    27     1    15    1
    28    15    16   ar
    29    16    17   ar
    30    17    18   ar
    31    18    19   ar
    32    19    22    1
    33    22    23    1
    34    19    20   ar
    35    20    21    1
    36    29    30   ar
    37    30    31   ar
    38    31    36    1
    39    36    37    1
    40    37    38    1
    41    31    32   ar
    42    32    27   ar
    43    12     2   ar
    44    20    15   ar
    45    10     4   ar
    46    25    26    1
