@<TRIPOS>MOLECULE
*****
 29 33 0 0 0
SMALL
GASTEIGER

@<TRIPOS>ATOM
      1 N         138.3614  140.7753  164.0293 N.3     1  UNL1       -0.2712
      2 C         138.5506  139.2906  164.1294 C.3     1  UNL1        0.0739
      3 C         139.1185  138.9862  165.4840 C.3     1  UNL1        0.0389
      4 C         139.2803  140.2825  166.2210 C.3     1  UNL1        0.0971
      5 C         138.8124  141.3883  165.3220 C.3     1  UNL1        0.0925
      6 N         139.8159  140.4447  167.6127 N.am    1  UNL1       -0.2589
      7 C         139.1594  139.9618  168.8719 C.2     1  UNL1        0.2338
      8 O         137.8520  139.2318  168.9606 O.2     1  UNL1       -0.2742
      9 C         140.0398  140.3369  170.0269 C.3     1  UNL1        0.1131
     10 C         141.2405  141.0517  169.4815 C.ar    1  UNL1        0.0007
     11 C         142.4419  141.6505  170.1508 C.ar    1  UNL1       -0.0026
     12 C         143.5049  142.3160  169.3279 C.ar    1  UNL1       -0.0002
     13 C         143.3665  142.3826  167.8358 C.ar    1  UNL1        0.0013
     14 C         142.1651  141.7838  167.1665 C.ar    1  UNL1        0.0146
     15 C         141.1021  141.1184  167.9894 C.ar    1  UNL1        0.0503
     16 C         137.8168  141.5169  162.8445 C.3     1  UNL1        0.0722
     17 C         138.4618  142.6295  162.3692 C.2     1  UNL1        0.4048
     18 O         137.4448  142.6675  163.4713 O.2     1  UNL1       -0.2262
     19 N         139.1191  143.8976  161.9112 N.am    1  UNL1       -0.2493
     20 C         140.1484  144.0152  160.8265 C.3     1  UNL1        0.0786
     21 C         140.5280  145.4610  160.7024 C.3     1  UNL1        0.0216
     22 C         139.7333  146.2371  161.7105 C.3     1  UNL1        0.0216
     23 C         138.8625  145.2708  162.4576 C.3     1  UNL1        0.0786
     24 C         138.1145  144.0912  163.0306 C.3     1  UNL1        0.0214
     25 C         138.4742  142.7850  162.3865 C.3     1  UNL1        0.0193
     26 C         139.4911  142.7471  161.2845 C.3     1  UNL1        0.0214
     27 O         138.8214  141.3234  161.7252 O.3     1  UNL1       -0.4345
     28 C         138.5869  139.7086  159.7034 C.3     1  UNL1        0.0513
     29 C         138.0517  140.8381  160.5327 C.3     1  UNL1        0.2102
@<TRIPOS>BOND
     1    28    29    1
     2    29    27    1
     3    27    17    1
     4    17    18    2
     5    17    19   am
     6    19    20    1
     7    20    21    1
     8    21    22    1
     9    23    22    1
    10    23    24    1
    11    24    25    1
    12    25    16    1
    13    16     1    1
    14     1     2    1
    15     2     3    1
    16     3     4    1
    17     4     6    1
    18     6     7   am
    19     7     8    2
    20     7     9    1
    21     9    10    1
    22    10    11   ar
    23    11    12   ar
    24    12    13   ar
    25    13    14   ar
    26    14    15   ar
    27     4     5    1
    28    25    26    1
    29    23    19    1
    30     5     1    1
    31    26    20    1
    32    15     6    1
    33    15    10   ar
@<TRIPOS>MOLECULE
*****
 29 33 0 0 0
SMALL
GASTEIGER

@<TRIPOS>ATOM
      1 N         138.6186  140.3324  163.3519 N.3     1  UNL1       -0.2712
      2 C         138.4817  138.8395  163.4039 C.3     1  UNL1        0.0739
      3 C         139.3255  138.3360  164.5372 C.3     1  UNL1        0.0389
      4 C         139.9838  139.5176  165.1856 C.3     1  UNL1        0.0971
      5 C         139.5469  140.7514  164.4530 C.3     1  UNL1        0.0925
      6 N         140.9154  139.4731  166.3604 N.am    1  UNL1       -0.2589
      7 C         142.3730  139.1216  166.3170 C.2     1  UNL1        0.2338
      8 O         143.1549  138.7527  165.0912 O.2     1  UNL1       -0.2742
      9 C         142.9114  139.2037  167.7146 C.3     1  UNL1        0.1131
     10 C         141.7866  139.6060  168.6218 C.ar    1  UNL1        0.0007
     11 C         141.7264  139.8421  170.1018 C.ar    1  UNL1       -0.0026
     12 C         140.4325  140.2449  170.7449 C.ar    1  UNL1       -0.0002
     13 C         139.1989  140.4114  169.9080 C.ar    1  UNL1        0.0013
     14 C         139.2591  140.1752  168.4279 C.ar    1  UNL1        0.0146
     15 C         140.5530  139.7725  167.7849 C.ar    1  UNL1        0.0503
     16 C         137.9453  141.2459  162.3708 C.3     1  UNL1        0.0722
     17 C         138.5287  142.4398  162.0335 C.2     1  UNL1        0.4048
     18 O         137.5572  142.2818  163.1655 O.2     1  UNL1       -0.2262
     19 N         139.1194  143.7858  161.7346 N.am    1  UNL1       -0.2493
     20 C         140.0982  144.0960  160.6411 C.3     1  UNL1        0.0786
     21 C         140.4188  145.5598  160.7074 C.3     1  UNL1        0.0216
     22 C         139.6382  146.1544  161.8419 C.3     1  UNL1        0.0216
     23 C         138.8351  145.0580  162.4768 C.3     1  UNL1        0.0786
     24 C         138.1553  143.7798  162.9051 C.3     1  UNL1        0.0214
     25 C         138.5360  142.5919  162.0719 C.3     1  UNL1        0.0193
     26 C         139.5074  142.7500  160.9400 C.3     1  UNL1        0.0214
     27 O         138.9093  141.2520  161.2004 O.3     1  UNL1       -0.4345
     28 C         138.6540  139.8862  159.0050 C.3     1  UNL1        0.0513
     29 C         138.1530  140.9452  159.9419 C.3     1  UNL1        0.2102
@<TRIPOS>BOND
     1    28    29    1
     2    29    27    1
     3    27    17    1
     4    17    18    2
     5    17    19   am
     6    19    20    1
     7    20    21    1
     8    21    22    1
     9    23    22    1
    10    23    24    1
    11    24    25    1
    12    25    16    1
    13    16     1    1
    14     1     2    1
    15     2     3    1
    16     3     4    1
    17     4     6    1
    18     6     7   am
    19     7     8    2
    20     7     9    1
    21     9    10    1
    22    10    11   ar
    23    11    12   ar
    24    12    13   ar
    25    13    14   ar
    26    14    15   ar
    27     4     5    1
    28    25    26    1
    29    23    19    1
    30     5     1    1
    31    26    20    1
    32    15     6    1
    33    15    10   ar
@<TRIPOS>MOLECULE
*****
 29 33 0 0 0
SMALL
GASTEIGER

@<TRIPOS>ATOM
      1 N         142.6013  144.2195  164.0561 N.3     1  UNL1       -0.2712
      2 C         144.0332  144.3711  164.4766 C.3     1  UNL1        0.0739
      3 C         144.3548  143.2623  165.4342 C.3     1  UNL1        0.0389
      4 C         143.1219  142.4254  165.6055 C.3     1  UNL1        0.0971
      5 C         142.0381  143.0170  164.7538 C.3     1  UNL1        0.0925
      6 N         142.9949  141.2103  166.4758 N.am    1  UNL1       -0.2589
      7 C         143.1184  139.7853  166.0238 C.2     1  UNL1        0.2338
      8 O         143.3905  139.3253  164.6223 O.2     1  UNL1       -0.2742
      9 C         142.9220  138.9012  167.2195 C.3     1  UNL1        0.1131
     10 C         142.6771  139.7797  168.4105 C.ar    1  UNL1        0.0007
     11 C         142.4189  139.4646  169.8540 C.ar    1  UNL1       -0.0026
     12 C         142.2058  140.5765  170.8379 C.ar    1  UNL1       -0.0002
     13 C         142.2509  142.0036  170.3782 C.ar    1  UNL1        0.0013
     14 C         142.5091  142.3188  168.9347 C.ar    1  UNL1        0.0146
     15 C         142.7222  141.2068  167.9508 C.ar    1  UNL1        0.0503
     16 C         141.8623  145.1135  163.1048 C.3     1  UNL1        0.0722
     17 C         141.5274  144.7262  161.8329 C.2     1  UNL1        0.4048
     18 O         142.8529  144.4283  162.4689 O.2     1  UNL1       -0.2262
     19 N         141.2458  144.2634  160.4342 N.am    1  UNL1       -0.2493
     20 C         139.9737  144.4858  159.6712 C.3     1  UNL1        0.0786
     21 C         140.1286  143.8569  158.3183 C.3     1  UNL1        0.0216
     22 C         141.4965  143.2457  158.2451 C.3     1  UNL1        0.0216
     23 C         142.1871  143.4970  159.5527 C.3     1  UNL1        0.0786
     24 C         142.6246  143.8901  160.9432 C.3     1  UNL1        0.0214
     25 C         141.5807  144.6507  161.7060 C.3     1  UNL1        0.0193
     26 C         140.2553  144.9485  161.0700 C.3     1  UNL1        0.0214
     27 O         140.4836  145.4868  162.5957 O.3     1  UNL1       -0.4345
     28 C         138.8398  144.8545  164.5057 C.3     1  UNL1        0.0513
     29 C         139.2389  144.7909  163.0612 C.3     1  UNL1        0.2102
@<TRIPOS>BOND
     1    28    29    1
     2    29    27    1
     3    27    17    1
     4    17    18    2
     5    17    19   am
     6    19    20    1
     7    20    21    1
     8    21    22    1
     9    23    22    1
    10    23    24    1
    11    24    25    1
    12    25    16    1
    13    16     1    1
    14     1     2    1
    15     2     3    1
    16     3     4    1
    17     4     6    1
    18     6     7   am
    19     7     8    2
    20     7     9    1
    21     9    10    1
    22    10    11   ar
    23    11    12   ar
    24    12    13   ar
    25    13    14   ar
    26    14    15   ar
    27     4     5    1
    28    25    26    1
    29    23    19    1
    30     5     1    1
    31    26    20    1
    32    15     6    1
    33    15    10   ar
@<TRIPOS>MOLECULE
*****
 29 33 0 0 0
SMALL
GASTEIGER

@<TRIPOS>ATOM
      1 N         143.8911  139.6986  163.9571 N.3     1  UNL1       -0.2712
      2 C         144.5052  138.7922  164.9824 C.3     1  UNL1        0.0739
      3 C         143.5316  138.6459  166.1141 C.3     1  UNL1        0.0389
      4 C         142.3159  139.4618  165.7882 C.3     1  UNL1        0.0971
      5 C         142.5380  140.1124  164.4550 C.3     1  UNL1        0.0925
      6 N         141.0927  139.6024  166.6450 N.am    1  UNL1       -0.2589
      7 C         139.6826  139.3139  166.2227 C.2     1  UNL1        0.2338
      8 O         139.2480  138.8342  164.8695 O.2     1  UNL1       -0.2742
      9 C         138.7833  139.5894  167.3912 C.3     1  UNL1        0.1131
     10 C         139.6376  140.0482  168.5356 C.ar    1  UNL1        0.0007
     11 C         139.3003  140.4596  169.9381 C.ar    1  UNL1       -0.0026
     12 C         140.3903  140.8790  170.8793 C.ar    1  UNL1       -0.0002
     13 C         141.8176  140.8870  170.4181 C.ar    1  UNL1        0.0013
     14 C         142.1549  140.4756  169.0157 C.ar    1  UNL1        0.0146
     15 C         141.0649  140.0562  168.0744 C.ar    1  UNL1        0.0503
     16 C         144.5198  140.1176  162.6611 C.3     1  UNL1        0.0722
     17 C         144.0635  139.6911  161.4407 C.2     1  UNL1        0.4048
     18 O         144.0984  138.8224  162.6631 O.2     1  UNL1       -0.2262
     19 N         143.5472  139.1409  160.1442 N.am    1  UNL1       -0.2493
     20 C         143.4522  139.8860  158.8458 C.3     1  UNL1        0.0786
     21 C         142.8815  138.9547  157.8177 C.3     1  UNL1        0.0216
     22 C         142.6238  137.6341  158.4807 C.3     1  UNL1        0.0216
     23 C         143.0352  137.7491  159.9186 C.3     1  UNL1        0.0786
     24 C         143.5221  138.1487  161.2906 C.3     1  UNL1        0.0214
     25 C         144.0035  139.5675  161.3647 C.3     1  UNL1        0.0193
     26 C         143.9685  140.4361  160.1422 C.3     1  UNL1        0.0214
     27 O         144.5448  141.1098  161.5147 O.3     1  UNL1       -0.4345
     28 C         144.0341  143.6022  162.0409 C.3     1  UNL1        0.0513
     29 C         143.5584  142.2294  161.6680 C.3     1  UNL1        0.2102
@<TRIPOS>BOND
     1    28    29    1
     2    29    27    1
     3    27    17    1
     4    17    18    2
     5    17    19   am
     6    19    20    1
     7    20    21    1
     8    21    22    1
     9    23    22    1
    10    23    24    1
    11    24    25    1
    12    25    16    1
    13    16     1    1
    14     1     2    1
    15     2     3    1
    16     3     4    1
    17     4     6    1
    18     6     7   am
    19     7     8    2
    20     7     9    1
    21     9    10    1
    22    10    11   ar
    23    11    12   ar
    24    12    13   ar
    25    13    14   ar
    26    14    15   ar
    27     4     5    1
    28    25    26    1
    29    23    19    1
    30     5     1    1
    31    26    20    1
    32    15     6    1
    33    15    10   ar
@<TRIPOS>MOLECULE
*****
 29 33 0 0 0
SMALL
GASTEIGER

@<TRIPOS>ATOM
      1 N         138.5879  140.9090  163.4581 N.3     1  UNL1       -0.2712
      2 C         138.3894  139.4345  163.2674 C.3     1  UNL1        0.0739
      3 C         139.3109  138.7173  164.2090 C.3     1  UNL1        0.0389
      4 C         140.0788  139.7485  164.9815 C.3     1  UNL1        0.0971
      5 C         139.6320  141.1031  164.5175 C.3     1  UNL1        0.0925
      6 N         141.1121  139.4734  166.0335 N.am    1  UNL1       -0.2589
      7 C         142.4848  138.9170  165.7968 C.2     1  UNL1        0.2338
      8 O         143.0653  138.5379  164.4666 O.2     1  UNL1       -0.2742
      9 C         143.1752  138.8062  167.1239 C.3     1  UNL1        0.1131
     10 C         142.2292  139.2942  168.1807 C.ar    1  UNL1        0.0007
     11 C         142.3640  139.4163  169.6696 C.ar    1  UNL1       -0.0026
     12 C         141.2239  139.9508  170.4846 C.ar    1  UNL1       -0.0002
     13 C         139.9488  140.3631  169.8107 C.ar    1  UNL1        0.0013
     14 C         139.8139  140.2410  168.3218 C.ar    1  UNL1        0.0146
     15 C         140.9541  139.7065  167.5068 C.ar    1  UNL1        0.0503
     16 C         137.8686  141.9984  162.7191 C.3     1  UNL1        0.0722
     17 C         138.4594  142.5918  161.6335 C.2     1  UNL1        0.4048
     18 O         137.5215  141.4254  161.5331 O.2     1  UNL1       -0.2262
     19 N         139.0612  143.1793  160.3914 N.am    1  UNL1       -0.2493
     20 C         140.0100  144.3398  160.3352 C.3     1  UNL1        0.0786
     21 C         140.3550  144.5872  158.8966 C.3     1  UNL1        0.0216
     22 C         139.6194  143.5796  158.0636 C.3     1  UNL1        0.0216
     23 C         138.8198  142.7095  158.9875 C.3     1  UNL1        0.0786
     24 C         138.1342  142.0070  160.1346 C.3     1  UNL1        0.0214
     25 C         138.4703  142.5859  161.4770 C.3     1  UNL1        0.0193
     26 C         139.4082  143.7522  161.5773 C.3     1  UNL1        0.0214
     27 O         138.7956  143.1706  162.9759 O.3     1  UNL1       -0.4345
     28 C         138.1478  144.7050  164.9699 C.3     1  UNL1        0.0513
     29 C         137.9650  144.2841  163.5418 C.3     1  UNL1        0.2102
@<TRIPOS>BOND
     1    28    29    1
     2    29    27    1
     3    27    17    1
     4    17    18    2
     5    17    19   am
     6    19    20    1
     7    20    21    1
     8    21    22    1
     9    23    22    1
    10    23    24    1
    11    24    25    1
    12    25    16    1
    13    16     1    1
    14     1     2    1
    15     2     3    1
    16     3     4    1
    17     4     6    1
    18     6     7   am
    19     7     8    2
    20     7     9    1
    21     9    10    1
    22    10    11   ar
    23    11    12   ar
    24    12    13   ar
    25    13    14   ar
    26    14    15   ar
    27     4     5    1
    28    25    26    1
    29    23    19    1
    30     5     1    1
    31    26    20    1
    32    15     6    1
    33    15    10   ar
@<TRIPOS>MOLECULE
*****
 29 33 0 0 0
SMALL
GASTEIGER

@<TRIPOS>ATOM
      1 N         138.4152  140.2165  164.7799 N.3     1  UNL1       -0.2712
      2 C         138.1160  138.8519  165.3264 C.3     1  UNL1        0.0739
      3 C         138.6181  138.7982  166.7389 C.3     1  UNL1        0.0389
      4 C         139.2274  140.1293  167.0653 C.3     1  UNL1        0.0971
      5 C         139.1020  141.0060  165.8546 C.3     1  UNL1        0.0925
      6 N         139.8524  140.5161  168.3729 N.am    1  UNL1       -0.2589
      7 C         139.2624  140.2896  169.7333 C.2     1  UNL1        0.2338
      8 O         137.9439  139.6366  170.0250 O.2     1  UNL1       -0.2742
      9 C         140.2225  140.8308  170.7508 C.3     1  UNL1        0.1131
     10 C         141.4058  141.3918  170.0193 C.ar    1  UNL1        0.0007
     11 C         142.6620  142.0546  170.5015 C.ar    1  UNL1       -0.0026
     12 C         143.6895  142.5229  169.5141 C.ar    1  UNL1       -0.0002
     13 C         143.4607  142.3284  168.0445 C.ar    1  UNL1        0.0013
     14 C         142.2045  141.6656  167.5622 C.ar    1  UNL1        0.0146
     15 C         141.1770  141.1973  168.5496 C.ar    1  UNL1        0.0503
     16 C         138.0853  140.7057  163.4007 C.3     1  UNL1        0.0722
     17 C         138.8917  140.4109  162.3318 C.2     1  UNL1        0.4048
     18 O         138.0102  139.4034  163.0087 O.2     1  UNL1       -0.2262
     19 N         139.7428  140.0002  161.1669 N.am    1  UNL1       -0.2493
     20 C         140.6690  140.8917  160.3940 C.3     1  UNL1        0.0786
     21 C         141.3157  140.0685  159.3198 C.3     1  UNL1        0.0216
     22 C         140.7892  138.6681  159.4288 C.3     1  UNL1        0.0216
     23 C         139.8171  138.6259  160.5704 C.3     1  UNL1        0.0786
     24 C         138.9060  138.8769  161.7477 C.3     1  UNL1        0.0214
     25 C         138.9364  140.2950  162.2358 C.3     1  UNL1        0.0193
     26 C         139.8179  141.3024  161.5589 C.3     1  UNL1        0.0214
     27 O         138.9221  141.8289  162.8199 O.3     1  UNL1       -0.4345
     28 C         137.7842  144.1580  162.9951 C.3     1  UNL1        0.0513
     29 C         137.8804  142.8039  162.3570 C.3     1  UNL1        0.2102
@<TRIPOS>BOND
     1    28    29    1
     2    29    27    1
     3    27    17    1
     4    17    18    2
     5    17    19   am
     6    19    20    1
     7    20    21    1
     8    21    22    1
     9    23    22    1
    10    23    24    1
    11    24    25    1
    12    25    16    1
    13    16     1    1
    14     1     2    1
    15     2     3    1
    16     3     4    1
    17     4     6    1
    18     6     7   am
    19     7     8    2
    20     7     9    1
    21     9    10    1
    22    10    11   ar
    23    11    12   ar
    24    12    13   ar
    25    13    14   ar
    26    14    15   ar
    27     4     5    1
    28    25    26    1
    29    23    19    1
    30     5     1    1
    31    26    20    1
    32    15     6    1
    33    15    10   ar
@<TRIPOS>MOLECULE
*****
 29 33 0 0 0
SMALL
GASTEIGER

@<TRIPOS>ATOM
      1 N         142.0640  143.7307  163.6986 N.3     1  UNL1       -0.2712
      2 C         140.8344  144.5598  163.9239 C.3     1  UNL1        0.0739
      3 C         139.9816  143.8576  164.9387 C.3     1  UNL1        0.0389
      4 C         140.6841  142.5948  165.3405 C.3     1  UNL1        0.0971
      5 C         141.9711  142.5163  164.5741 C.3     1  UNL1        0.0925
      6 N         140.1870  141.5872  166.3343 N.am    1  UNL1       -0.2589
      7 C         139.4447  140.3240  166.0130 C.2     1  UNL1        0.2338
      8 O         139.0692  139.8465  164.6415 O.2     1  UNL1       -0.2742
      9 C         139.1438  139.6220  167.3040 C.3     1  UNL1        0.1131
     10 C         139.7001  140.4514  168.4232 C.ar    1  UNL1        0.0007
     11 C         139.7029  140.2576  169.9106 C.ar    1  UNL1       -0.0026
     12 C         140.3504  141.2784  170.7987 C.ar    1  UNL1       -0.0002
     13 C         140.9952  142.4929  170.1994 C.ar    1  UNL1        0.0013
     14 C         140.9924  142.6867  168.7120 C.ar    1  UNL1        0.0146
     15 C         140.3448  141.6660  167.8239 C.ar    1  UNL1        0.0503
     16 C         143.1891  144.0585  162.7621 C.3     1  UNL1        0.0722
     17 C         143.2417  143.5732  161.4809 C.2     1  UNL1        0.4048
     18 O         142.0353  144.2482  162.0634 O.2     1  UNL1       -0.2262
     19 N         143.2112  143.0719  160.0675 N.am    1  UNL1       -0.2493
     20 C         144.3344  142.3809  159.3527 C.3     1  UNL1        0.0786
     21 C         143.8696  142.0554  157.9642 C.3     1  UNL1        0.0216
     22 C         142.4591  142.5452  157.8208 C.3     1  UNL1        0.0216
     23 C         142.0522  143.1735  159.1207 C.3     1  UNL1        0.0786
     24 C         141.9218  143.7307  160.5178 C.3     1  UNL1        0.0214
     25 C         143.1586  143.5572  161.3487 C.3     1  UNL1        0.0193
     26 C         144.3649  142.8823  160.7661 C.3     1  UNL1        0.0214
     27 O         144.4784  143.3997  162.3118 O.3     1  UNL1       -0.4345
     28 C         145.6003  141.7407  163.9667 C.3     1  UNL1        0.0513
     29 C         144.9811  142.0228  162.6299 C.3     1  UNL1        0.2102
@<TRIPOS>BOND
     1    28    29    1
     2    29    27    1
     3    27    17    1
     4    17    18    2
     5    17    19   am
     6    19    20    1
     7    20    21    1
     8    21    22    1
     9    23    22    1
    10    23    24    1
    11    24    25    1
    12    25    16    1
    13    16     1    1
    14     1     2    1
    15     2     3    1
    16     3     4    1
    17     4     6    1
    18     6     7   am
    19     7     8    2
    20     7     9    1
    21     9    10    1
    22    10    11   ar
    23    11    12   ar
    24    12    13   ar
    25    13    14   ar
    26    14    15   ar
    27     4     5    1
    28    25    26    1
    29    23    19    1
    30     5     1    1
    31    26    20    1
    32    15     6    1
    33    15    10   ar
@<TRIPOS>MOLECULE
*****
 29 33 0 0 0
SMALL
GASTEIGER

@<TRIPOS>ATOM
      1 N         142.5965  139.7537  165.2650 N.3     1  UNL1       -0.2712
      2 C         143.9715  139.1550  165.2337 C.3     1  UNL1        0.0739
      3 C         144.5850  139.4725  163.9022 C.3     1  UNL1        0.0389
      4 C         143.5893  140.2674  163.1107 C.3     1  UNL1        0.0971
      5 C         142.3603  140.4412  163.9529 C.3     1  UNL1        0.0925
      6 N         143.7877  140.7957  161.7209 N.am    1  UNL1       -0.2589
      7 C         144.3257  142.1488  161.3605 C.2     1  UNL1        0.2338
      8 O         144.7597  143.2110  162.3265 O.2     1  UNL1       -0.2742
      9 C         144.3534  142.2530  159.8643 C.3     1  UNL1        0.1131
     10 C         143.8325  140.9645  159.3001 C.ar    1  UNL1        0.0007
     11 C         143.6315  140.4949  157.8898 C.ar    1  UNL1       -0.0026
     12 C         143.0808  139.1247  157.6269 C.ar    1  UNL1       -0.0002
     13 C         142.7312  138.2240  158.7743 C.ar    1  UNL1        0.0013
     14 C         142.9323  138.6935  160.1847 C.ar    1  UNL1        0.0146
     15 C         143.4829  140.0638  160.4475 C.ar    1  UNL1        0.0503
     16 C         141.6278  139.6782  166.4078 C.3     1  UNL1        0.0722
     17 C         141.5382  140.6797  167.3398 C.2     1  UNL1        0.4048
     18 O         142.7553  139.8219  167.1582 O.2     1  UNL1       -0.2262
     19 N         141.5275  141.7545  168.3861 N.am    1  UNL1       -0.2493
     20 C         140.3892  142.6855  168.6821 C.3     1  UNL1        0.0786
     21 C         140.8113  143.5933  169.7991 C.3     1  UNL1        0.0216
     22 C         142.2105  143.2233  170.1935 C.3     1  UNL1        0.0216
     23 C         142.6531  142.0868  169.3203 C.3     1  UNL1        0.0786
     24 C         142.8234  140.9699  168.3189 C.3     1  UNL1        0.0214
     25 C         141.6170  140.7529  167.4541 C.3     1  UNL1        0.0193
     26 C         140.4000  141.6107  167.6357 C.3     1  UNL1        0.0214
     27 O         140.3319  140.4627  166.4751 O.3     1  UNL1       -0.4345
     28 C         138.0827  139.2410  166.0296 C.3     1  UNL1        0.0513
     29 C         139.2172  139.5790  166.9509 C.3     1  UNL1        0.2102
@<TRIPOS>BOND
     1    28    29    1
     2    29    27    1
     3    27    17    1
     4    17    18    2
     5    17    19   am
     6    19    20    1
     7    20    21    1
     8    21    22    1
     9    23    22    1
    10    23    24    1
    11    24    25    1
    12    25    16    1
    13    16     1    1
    14     1     2    1
    15     2     3    1
    16     3     4    1
    17     4     6    1
    18     6     7   am
    19     7     8    2
    20     7     9    1
    21     9    10    1
    22    10    11   ar
    23    11    12   ar
    24    12    13   ar
    25    13    14   ar
    26    14    15   ar
    27     4     5    1
    28    25    26    1
    29    23    19    1
    30     5     1    1
    31    26    20    1
    32    15     6    1
    33    15    10   ar
@<TRIPOS>MOLECULE
*****
 29 33 0 0 0
SMALL
GASTEIGER

@<TRIPOS>ATOM
      1 N         139.0814  140.6200  164.2074 N.3     1  UNL1       -0.2712
      2 C         137.6475  141.0584  164.1641 C.3     1  UNL1        0.0739
      3 C         137.3695  141.5993  162.7929 C.3     1  UNL1        0.0389
      4 C         138.6315  141.4952  161.9888 C.3     1  UNL1        0.0971
      5 C         139.6895  140.8900  162.8630 C.3     1  UNL1        0.0925
      6 N         138.8050  141.9215  160.5611 N.am    1  UNL1       -0.2589
      7 C         138.3303  141.1703  159.3527 C.2     1  UNL1        0.2338
      8 O         137.5987  139.8608  159.3598 O.2     1  UNL1       -0.2742
      9 C         138.7156  141.9584  158.1361 C.3     1  UNL1        0.1131
     10 C         139.4285  143.1968  158.5925 C.ar    1  UNL1        0.0007
     11 C         140.0344  144.3422  157.8370 C.ar    1  UNL1       -0.0026
     12 C         140.6956  145.4648  158.5803 C.ar    1  UNL1       -0.0002
     13 C         140.7508  145.4420  160.0791 C.ar    1  UNL1        0.0013
     14 C         140.1449  144.2966  160.8346 C.ar    1  UNL1        0.0146
     15 C         139.4837  143.1740  160.0913 C.ar    1  UNL1        0.0503
     16 C         139.7839  140.0174  165.3879 C.3     1  UNL1        0.0722
     17 C         139.8972  140.6689  166.5889 C.2     1  UNL1        0.4048
     18 O         140.1780  141.3154  165.2647 O.2     1  UNL1       -0.2262
     19 N         140.0471  141.4582  167.8556 N.am    1  UNL1       -0.2493
     20 C         139.8030  140.9497  169.2454 C.3     1  UNL1        0.0786
     21 C         140.0725  142.0718  170.2036 C.3     1  UNL1        0.0216
     22 C         140.4832  143.2739  169.4060 C.3     1  UNL1        0.0216
     23 C         140.4676  142.8947  167.9548 C.3     1  UNL1        0.0786
     24 C         140.3645  142.2425  166.5971 C.3     1  UNL1        0.0214
     25 C         139.9338  140.8067  166.6546 C.3     1  UNL1        0.0193
     26 C         139.6531  140.1603  167.9787 C.3     1  UNL1        0.0214
     27 O         139.4666  139.2332  166.6463 O.3     1  UNL1       -0.4345
     28 C         137.5560  137.4802  166.8089 C.3     1  UNL1        0.0513
     29 C         138.0430  138.8896  166.9709 C.3     1  UNL1        0.2102
@<TRIPOS>BOND
     1    28    29    1
     2    29    27    1
     3    27    17    1
     4    17    18    2
     5    17    19   am
     6    19    20    1
     7    20    21    1
     8    21    22    1
     9    23    22    1
    10    23    24    1
    11    24    25    1
    12    25    16    1
    13    16     1    1
    14     1     2    1
    15     2     3    1
    16     3     4    1
    17     4     6    1
    18     6     7   am
    19     7     8    2
    20     7     9    1
    21     9    10    1
    22    10    11   ar
    23    11    12   ar
    24    12    13   ar
    25    13    14   ar
    26    14    15   ar
    27     4     5    1
    28    25    26    1
    29    23    19    1
    30     5     1    1
    31    26    20    1
    32    15     6    1
    33    15    10   ar
