@<TRIPOS>MOLECULE
*****
 38 41 0 0 0
SMALL
GASTEIGER

@<TRIPOS>ATOM
      1 C         140.9835  144.9527  160.7897 C.ar    1  UNL1        0.0008
      2 C         140.4020  145.2958  159.4502 C.ar    1  UNL1       -0.0024
      3 C         140.9474  144.6537  158.2092 C.ar    1  UNL1        0.0028
      4 C         142.0742  143.6685  158.3076 C.ar    1  UNL1        0.0369
      5 C         142.6557  143.3254  159.6471 C.ar    1  UNL1        0.1389
      6 C         142.1103  143.9675  160.8881 C.ar    1  UNL1        0.0343
      7 C         140.4381  145.5948  162.0308 C.3     1  UNL1        0.1239
      8 C         140.4753  144.2058  164.2260 C.2     1  UNL1        0.4100
      9 O         141.9422  144.4811  164.3754 O.2     1  UNL1       -0.2258
     10 N         139.7232  144.7627  163.0537 N.am    1  UNL1       -0.2363
     11 O         139.7604  143.3736  165.2489 O.3     1  UNL1       -0.4101
     12 C         139.8408  137.3885  164.8348 C.3     1  UNL1        0.0310
     13 C         139.8207  138.8847  164.9383 C.ar    1  UNL1       -0.0217
     14 C         140.1552  139.7239  163.7409 C.ar    1  UNL1       -0.0011
     15 C         140.1351  141.2202  163.8444 C.ar    1  UNL1        0.0373
     16 C         139.7805  141.8773  165.1454 C.ar    1  UNL1        0.1500
     17 C         139.4460  141.0381  166.3429 C.ar    1  UNL1        0.0373
     18 C         139.4661  139.5418  166.2393 C.ar    1  UNL1       -0.0011
     19 C         138.2563  144.4874  162.9043 C.3     1  UNL1        0.1388
     20 C         137.7941  143.2395  162.2122 C.2     1  UNL1        0.0706
     21 O         138.0878  143.0372  160.7552 O.co2   1  UNL1       -0.5474
     22 O         137.0381  142.1938  162.9771 O.co2   1  UNL1       -0.5474
     23 O         143.7824  142.3402  159.7455 O.3     1  UNL1       -0.4689
     24 C         144.6402  142.3021  160.9754 C.3     1  UNL1        0.2537
     25 C         144.2368  141.4541  162.1451 C.ar    1  UNL1        0.1359
     26 N         143.9699  141.9428  163.5380 N.ar    1  UNL1       -0.2093
     27 C         143.5976  140.7593  164.3811 C.ar    1  UNL1        0.2290
     28 O         143.6345  139.5392  163.5093 O.2     1  UNL1       -0.4391
     29 C         144.0295  139.9686  162.1274 C.ar    1  UNL1        0.1421
     30 C         144.1892  139.0702  160.9369 C.3     1  UNL1        0.0740
     31 C         143.2497  140.7905  165.8398 C.ar    1  UNL1        0.0536
     32 C         143.1220  142.1042  166.5525 C.ar    1  UNL1        0.0053
     33 C         142.7740  142.1354  168.0112 C.ar    1  UNL1        0.0104
     34 C         142.5536  140.8529  168.7573 C.ar    1  UNL1        0.0685
     35 C         142.6813  139.5392  168.0446 C.ar    1  UNL1        0.0104
     36 C         143.0293  139.5080  166.5858 C.ar    1  UNL1        0.0053
     37 C         142.2056  140.8840  170.2160 C.1     1  UNL1        0.1004
     38 N         141.8576  140.9152  171.6748 N.1     1  UNL1       -0.1908
@<TRIPOS>UNITY_ATOM_ATTR
21 1
charge -1
@<TRIPOS>BOND
     1    12    13    1
     2    13    14   ar
     3    14    15   ar
     4    15    16   ar
     5    16    11    1
     6    11     8    1
     7     8     9    2
     8     8    10   am
     9    10    19    1
    10    19    20    1
    11    20    21   ar
    12    20    22   ar
    13    10     7    1
    14     7     1    1
    15     1     2   ar
    16     2     3   ar
    17     3     4   ar
    18     4     5   ar
    19     5    23    1
    20    23    24    1
    21    24    25    1
    22    25    26   ar
    23    26    27   ar
    24    27    31    1
    25    31    32   ar
    26    32    33   ar
    27    33    34   ar
    28    34    37    1
    29    37    38    3
    30    34    35   ar
    31    35    36   ar
    32    27    28   ar
    33    28    29   ar
    34    29    30    1
    35     5     6   ar
    36    16    17   ar
    37    17    18   ar
    38    18    13   ar
    39     6     1   ar
    40    29    25   ar
    41    36    31   ar
@<TRIPOS>MOLECULE
*****
 38 41 0 0 0
SMALL
GASTEIGER

@<TRIPOS>ATOM
      1 C         142.5194  142.3353  159.5643 C.ar    1  UNL1        0.0008
      2 C         142.7130  143.6590  158.8858 C.ar    1  UNL1       -0.0024
      3 C         141.5301  144.5367  158.6024 C.ar    1  UNL1        0.0028
      4 C         140.1536  144.0907  158.9975 C.ar    1  UNL1        0.0369
      5 C         139.9598  142.7670  159.6760 C.ar    1  UNL1        0.1389
      6 C         141.1428  141.8893  159.9594 C.ar    1  UNL1        0.0343
      7 C         143.7023  141.4576  159.8477 C.3     1  UNL1        0.1239
      8 C         143.5140  138.9972  160.6609 C.2     1  UNL1        0.4100
      9 O         143.4399  138.5322  159.2368 O.2     1  UNL1       -0.2258
     10 N         143.6451  140.4600  160.9664 N.am    1  UNL1       -0.2363
     11 O         143.4568  137.9997  161.7796 O.3     1  UNL1       -0.4101
     12 C         138.5811  137.6726  165.2611 C.3     1  UNL1        0.0310
     13 C         139.8000  137.7543  164.3907 C.ar    1  UNL1       -0.0217
     14 C         141.1639  137.8057  165.0130 C.ar    1  UNL1       -0.0011
     15 C         142.3828  137.8875  164.1427 C.ar    1  UNL1        0.0373
     16 C         142.2379  137.9179  162.6499 C.ar    1  UNL1        0.1500
     17 C         140.8740  137.8665  162.0276 C.ar    1  UNL1        0.0373
     18 C         139.6551  137.7847  162.8981 C.ar    1  UNL1       -0.0011
     19 C         143.7191  140.9251  162.3905 C.3     1  UNL1        0.1388
     20 C         145.0219  140.8669  163.1317 C.2     1  UNL1        0.0706
     21 O         145.2314  139.8352  164.2003 O.co2   1  UNL1       -0.5474
     22 O         146.1151  141.8405  162.8045 O.co2   1  UNL1       -0.5474
     23 O         138.5833  142.3210  160.0710 O.3     1  UNL1       -0.4689
     24 C         138.0087  142.7415  161.3912 C.3     1  UNL1        0.2537
     25 C         138.8936  142.8351  162.5987 C.ar    1  UNL1        0.1359
     26 N         139.2342  141.7107  163.5315 N.ar    1  UNL1       -0.2093
     27 C         140.1444  142.2501  164.5948 C.ar    1  UNL1        0.2290
     28 O         140.3665  143.7078  164.3192 O.2     1  UNL1       -0.4391
     29 C         139.5934  144.0693  163.0855 C.ar    1  UNL1        0.1421
     30 C         139.5312  145.4267  162.4503 C.3     1  UNL1        0.0740
     31 C         140.7298  141.4690  165.7336 C.ar    1  UNL1        0.0536
     32 C         142.2172  141.3143  165.8508 C.ar    1  UNL1        0.0053
     33 C         142.8028  140.5332  166.9897 C.ar    1  UNL1        0.0104
     34 C         141.9007  139.9066  168.0114 C.ar    1  UNL1        0.0685
     35 C         140.4133  140.0613  167.8942 C.ar    1  UNL1        0.0104
     36 C         139.8279  140.8424  166.7553 C.ar    1  UNL1        0.0053
     37 C         142.4862  139.1255  169.1503 C.1     1  UNL1        0.1004
     38 N         143.0716  138.3443  170.2892 N.1     1  UNL1       -0.1908
@<TRIPOS>UNITY_ATOM_ATTR
21 1
charge -1
@<TRIPOS>BOND
     1    12    13    1
     2    13    14   ar
     3    14    15   ar
     4    15    16   ar
     5    16    11    1
     6    11     8    1
     7     8     9    2
     8     8    10   am
     9    10    19    1
    10    19    20    1
    11    20    21   ar
    12    20    22   ar
    13    10     7    1
    14     7     1    1
    15     1     2   ar
    16     2     3   ar
    17     3     4   ar
    18     4     5   ar
    19     5    23    1
    20    23    24    1
    21    24    25    1
    22    25    26   ar
    23    26    27   ar
    24    27    31    1
    25    31    32   ar
    26    32    33   ar
    27    33    34   ar
    28    34    37    1
    29    37    38    3
    30    34    35   ar
    31    35    36   ar
    32    27    28   ar
    33    28    29   ar
    34    29    30    1
    35     5     6   ar
    36    16    17   ar
    37    17    18   ar
    38    18    13   ar
    39     6     1   ar
    40    29    25   ar
    41    36    31   ar
@<TRIPOS>MOLECULE
*****
 38 41 0 0 0
SMALL
GASTEIGER

@<TRIPOS>ATOM
      1 C         140.0072  143.6970  159.1249 C.ar    1  UNL1        0.0008
      2 C         140.5028  143.3869  157.7435 C.ar    1  UNL1       -0.0024
      3 C         140.2073  142.0540  157.1223 C.ar    1  UNL1        0.0028
      4 C         139.4162  141.0311  157.8824 C.ar    1  UNL1        0.0369
      5 C         138.9206  141.3411  159.2639 C.ar    1  UNL1        0.1389
      6 C         139.2161  142.6741  159.8851 C.ar    1  UNL1        0.0343
      7 C         140.3027  145.0299  159.7462 C.3     1  UNL1        0.1239
      8 C         142.2293  144.4712  161.3973 C.2     1  UNL1        0.4100
      9 O         142.9691  143.7701  160.2968 O.2     1  UNL1       -0.2258
     10 N         140.8961  145.1012  161.1219 N.am    1  UNL1       -0.2363
     11 O         142.8227  144.5425  162.7731 O.3     1  UNL1       -0.4101
     12 C         143.1579  139.5980  166.1553 C.3     1  UNL1        0.0310
     13 C         143.0741  140.8341  165.3097 C.ar    1  UNL1       -0.0217
     14 C         143.5742  142.1436  165.8439 C.ar    1  UNL1       -0.0011
     15 C         143.4904  143.3797  164.9984 C.ar    1  UNL1        0.0373
     16 C         142.9065  143.3064  163.6186 C.ar    1  UNL1        0.1500
     17 C         142.4064  141.9970  163.0844 C.ar    1  UNL1        0.0373
     18 C         142.4903  140.7608  163.9300 C.ar    1  UNL1       -0.0011
     19 C         140.1563  145.8024  162.2224 C.3     1  UNL1        0.1388
     20 C         139.1896  145.0408  163.0801 C.2     1  UNL1        0.0706
     21 O         137.9200  144.5063  162.4863 O.co2   1  UNL1       -0.5474
     22 O         139.4925  144.8138  164.5315 O.co2   1  UNL1       -0.5474
     23 O         138.1296  140.3182  160.0241 O.3     1  UNL1       -0.4689
     24 C         137.5554  140.6603  161.3669 C.3     1  UNL1        0.2537
     25 C         138.2723  140.2444  162.6171 C.ar    1  UNL1        0.1359
     26 N         138.3249  141.0170  163.9019 N.ar    1  UNL1       -0.2093
     27 C         139.1476  140.2330  164.8809 C.ar    1  UNL1        0.2290
     28 O         139.6034  138.9758  164.2014 O.2     1  UNL1       -0.4391
     29 C         139.0624  138.9829  162.8022 C.ar    1  UNL1        0.1421
     30 C         139.2744  137.9158  161.7696 C.3     1  UNL1        0.0740
     31 C         139.4596  140.6354  166.2918 C.ar    1  UNL1        0.0536
     32 C         140.0261  141.9949  166.5760 C.ar    1  UNL1        0.0053
     33 C         140.3382  142.3975  167.9869 C.ar    1  UNL1        0.0104
     34 C         140.0837  141.4403  169.1136 C.ar    1  UNL1        0.0685
     35 C         139.5171  140.0809  168.8293 C.ar    1  UNL1        0.0104
     36 C         139.2051  139.6784  167.4184 C.ar    1  UNL1        0.0053
     37 C         140.3957  141.8428  170.5245 C.1     1  UNL1        0.1004
     38 N         140.7077  142.2453  171.9354 N.1     1  UNL1       -0.1908
@<TRIPOS>UNITY_ATOM_ATTR
21 1
charge -1
@<TRIPOS>BOND
     1    12    13    1
     2    13    14   ar
     3    14    15   ar
     4    15    16   ar
     5    16    11    1
     6    11     8    1
     7     8     9    2
     8     8    10   am
     9    10    19    1
    10    19    20    1
    11    20    21   ar
    12    20    22   ar
    13    10     7    1
    14     7     1    1
    15     1     2   ar
    16     2     3   ar
    17     3     4   ar
    18     4     5   ar
    19     5    23    1
    20    23    24    1
    21    24    25    1
    22    25    26   ar
    23    26    27   ar
    24    27    31    1
    25    31    32   ar
    26    32    33   ar
    27    33    34   ar
    28    34    37    1
    29    37    38    3
    30    34    35   ar
    31    35    36   ar
    32    27    28   ar
    33    28    29   ar
    34    29    30    1
    35     5     6   ar
    36    16    17   ar
    37    17    18   ar
    38    18    13   ar
    39     6     1   ar
    40    29    25   ar
    41    36    31   ar
@<TRIPOS>MOLECULE
*****
 38 41 0 0 0
SMALL
GASTEIGER

@<TRIPOS>ATOM
      1 C         141.5930  138.7306  160.3454 C.ar    1  UNL1        0.0008
      2 C         142.3837  137.6298  160.9879 C.ar    1  UNL1       -0.0024
      3 C         143.8079  137.8679  161.3939 C.ar    1  UNL1        0.0028
      4 C         144.4414  139.2068  161.1575 C.ar    1  UNL1        0.0369
      5 C         143.6507  140.3077  160.5150 C.ar    1  UNL1        0.1389
      6 C         142.2265  140.0697  160.1089 C.ar    1  UNL1        0.0343
      7 C         140.1687  138.4926  159.9393 C.3     1  UNL1        0.1239
      8 C         138.4683  140.4125  160.3546 C.2     1  UNL1        0.4100
      9 O         139.0047  141.1458  159.1610 O.2     1  UNL1       -0.2258
     10 N         139.0503  139.0858  160.7437 N.am    1  UNL1       -0.2363
     11 O         137.3499  141.0058  161.1590 O.3     1  UNL1       -0.4101
     12 C         138.5486  144.9954  165.4770 C.3     1  UNL1        0.0310
     13 C         138.2489  143.9980  164.3975 C.ar    1  UNL1       -0.0217
     14 C         138.4556  144.3659  162.9580 C.ar    1  UNL1       -0.0011
     15 C         138.1559  143.3685  161.8785 C.ar    1  UNL1        0.0373
     16 C         137.6495  142.0032  162.2384 C.ar    1  UNL1        0.1500
     17 C         137.4429  141.6353  163.6779 C.ar    1  UNL1        0.0373
     18 C         137.7426  142.6327  164.7574 C.ar    1  UNL1       -0.0011
     19 C         138.5139  138.3526  161.9372 C.3     1  UNL1        0.1388
     20 C         139.2060  138.4696  163.2628 C.2     1  UNL1        0.0706
     21 O         140.2579  139.5188  163.4696 O.co2   1  UNL1       -0.5474
     22 O         138.8464  137.5373  164.3815 O.co2   1  UNL1       -0.5474
     23 O         144.2842  141.6467  160.2786 O.3     1  UNL1       -0.4689
     24 C         144.6442  142.5220  161.4422 C.3     1  UNL1        0.2537
     25 C         143.6433  142.7713  162.5312 C.ar    1  UNL1        0.1359
     26 N         143.7216  142.2524  163.9365 N.ar    1  UNL1       -0.2093
     27 C         142.5150  142.7436  164.6800 C.ar    1  UNL1        0.2290
     28 O         141.6908  143.5661  163.7343 O.2     1  UNL1       -0.4391
     29 C         142.3882  143.5832  162.4062 C.ar    1  UNL1        0.1421
     30 C         141.9137  144.2884  161.1703 C.3     1  UNL1        0.0740
     31 C         142.1896  142.4618  166.1168 C.ar    1  UNL1        0.0536
     32 C         143.2849  142.4277  167.1411 C.ar    1  UNL1        0.0053
     33 C         142.9597  142.1459  168.5780 C.ar    1  UNL1        0.0104
     34 C         141.5389  141.8982  168.9907 C.ar    1  UNL1        0.0685
     35 C         140.4436  141.9323  167.9664 C.ar    1  UNL1        0.0104
     36 C         140.7690  142.2141  166.5295 C.ar    1  UNL1        0.0053
     37 C         141.2135  141.6164  170.4276 C.1     1  UNL1        0.1004
     38 N         140.8881  141.3346  171.8645 N.1     1  UNL1       -0.1908
@<TRIPOS>UNITY_ATOM_ATTR
21 1
charge -1
@<TRIPOS>BOND
     1    12    13    1
     2    13    14   ar
     3    14    15   ar
     4    15    16   ar
     5    16    11    1
     6    11     8    1
     7     8     9    2
     8     8    10   am
     9    10    19    1
    10    19    20    1
    11    20    21   ar
    12    20    22   ar
    13    10     7    1
    14     7     1    1
    15     1     2   ar
    16     2     3   ar
    17     3     4   ar
    18     4     5   ar
    19     5    23    1
    20    23    24    1
    21    24    25    1
    22    25    26   ar
    23    26    27   ar
    24    27    31    1
    25    31    32   ar
    26    32    33   ar
    27    33    34   ar
    28    34    37    1
    29    37    38    3
    30    34    35   ar
    31    35    36   ar
    32    27    28   ar
    33    28    29   ar
    34    29    30    1
    35     5     6   ar
    36    16    17   ar
    37    17    18   ar
    38    18    13   ar
    39     6     1   ar
    40    29    25   ar
    41    36    31   ar
@<TRIPOS>MOLECULE
*****
 38 41 0 0 0
SMALL
GASTEIGER

@<TRIPOS>ATOM
      1 C         140.9640  144.5139  160.8255 C.ar    1  UNL1        0.0008
      2 C         140.9948  145.1976  159.4908 C.ar    1  UNL1       -0.0024
      3 C         141.9528  144.7352  158.4332 C.ar    1  UNL1        0.0028
      4 C         142.8799  143.5891  158.7103 C.ar    1  UNL1        0.0369
      5 C         142.8491  142.9053  160.0451 C.ar    1  UNL1        0.1389
      6 C         141.8911  143.3678  161.1027 C.ar    1  UNL1        0.0343
      7 C         140.0060  144.9764  161.8831 C.3     1  UNL1        0.1239
      8 C         138.3760  143.1320  162.7145 C.2     1  UNL1        0.4100
      9 O         137.6470  143.1857  161.4046 O.2     1  UNL1       -0.2258
     10 N         139.5555  144.0273  162.9537 N.am    1  UNL1       -0.2363
     11 O         137.9254  142.1829  163.7851 O.3     1  UNL1       -0.4101
     12 C         140.6990  136.9080  164.4793 C.3     1  UNL1        0.0310
     13 C         140.0056  138.2267  164.3058 C.ar    1  UNL1       -0.0217
     14 C         138.9922  138.6797  165.3146 C.ar    1  UNL1       -0.0011
     15 C         138.2988  139.9984  165.1411 C.ar    1  UNL1        0.0373
     16 C         138.6188  140.8642  163.9587 C.ar    1  UNL1        0.1500
     17 C         139.6323  140.4113  162.9499 C.ar    1  UNL1        0.0373
     18 C         140.3257  139.0925  163.1234 C.ar    1  UNL1       -0.0011
     19 C         140.2844  143.9736  164.2636 C.3     1  UNL1        0.1388
     20 C         139.5283  144.1295  165.5496 C.2     1  UNL1        0.0706
     21 O         139.8583  143.2568  166.7243 O.co2   1  UNL1       -0.5474
     22 O         138.4423  145.1581  165.6611 O.co2   1  UNL1       -0.5474
     23 O         143.7762  141.7592  160.3223 O.3     1  UNL1       -0.4689
     24 C         144.6069  141.7516  161.5712 C.3     1  UNL1        0.2537
     25 C         144.0886  141.0885  162.8128 C.ar    1  UNL1        0.1359
     26 N         143.6753  141.7831  164.0765 N.ar    1  UNL1       -0.2093
     27 C         143.2237  140.7382  165.0534 C.ar    1  UNL1        0.2290
     28 O         143.3579  139.3978  164.3935 O.2     1  UNL1       -0.4391
     29 C         143.8924  139.6143  163.0087 C.ar    1  UNL1        0.1421
     30 C         144.1802  138.5445  161.9975 C.3     1  UNL1        0.0740
     31 C         142.7255  140.9896  166.4456 C.ar    1  UNL1        0.0536
     32 C         141.7419  140.0461  167.0720 C.ar    1  UNL1        0.0053
     33 C         141.2436  140.2974  168.4643 C.ar    1  UNL1        0.0104
     34 C         141.7291  141.4923  169.2303 C.ar    1  UNL1        0.0685
     35 C         142.7127  142.4358  168.6040 C.ar    1  UNL1        0.0104
     36 C         143.2109  142.1844  167.2116 C.ar    1  UNL1        0.0053
     37 C         141.2308  141.7437  170.6227 C.1     1  UNL1        0.1004
     38 N         140.7326  141.9951  172.0150 N.1     1  UNL1       -0.1908
@<TRIPOS>UNITY_ATOM_ATTR
21 1
charge -1
@<TRIPOS>BOND
     1    12    13    1
     2    13    14   ar
     3    14    15   ar
     4    15    16   ar
     5    16    11    1
     6    11     8    1
     7     8     9    2
     8     8    10   am
     9    10    19    1
    10    19    20    1
    11    20    21   ar
    12    20    22   ar
    13    10     7    1
    14     7     1    1
    15     1     2   ar
    16     2     3   ar
    17     3     4   ar
    18     4     5   ar
    19     5    23    1
    20    23    24    1
    21    24    25    1
    22    25    26   ar
    23    26    27   ar
    24    27    31    1
    25    31    32   ar
    26    32    33   ar
    27    33    34   ar
    28    34    37    1
    29    37    38    3
    30    34    35   ar
    31    35    36   ar
    32    27    28   ar
    33    28    29   ar
    34    29    30    1
    35     5     6   ar
    36    16    17   ar
    37    17    18   ar
    38    18    13   ar
    39     6     1   ar
    40    29    25   ar
    41    36    31   ar
@<TRIPOS>MOLECULE
*****
 38 41 0 0 0
SMALL
GASTEIGER

@<TRIPOS>ATOM
      1 C         143.0975  140.2164  160.0142 C.ar    1  UNL1        0.0008
      2 C         144.1045  139.3164  160.6667 C.ar    1  UNL1       -0.0024
      3 C         143.6644  138.0232  161.2863 C.ar    1  UNL1        0.0028
      4 C         142.2172  137.6301  161.2534 C.ar    1  UNL1        0.0369
      5 C         141.2101  138.5301  160.6009 C.ar    1  UNL1        0.1389
      6 C         141.6503  139.8233  159.9813 C.ar    1  UNL1        0.0343
      7 C         143.5377  141.5096  159.3946 C.3     1  UNL1        0.1239
      8 C         143.0082  143.4744  161.0099 C.2     1  UNL1        0.4100
      9 O         143.9617  142.9033  162.0172 O.2     1  UNL1       -0.2258
     10 N         142.7962  142.7776  159.6985 N.am    1  UNL1       -0.2363
     11 O         142.2667  144.7424  161.3138 O.3     1  UNL1       -0.4101
     12 C         137.7502  144.7032  165.2634 C.3     1  UNL1        0.0310
     13 C         138.8793  144.7130  164.2760 C.ar    1  UNL1       -0.0217
     14 C         140.2990  144.6957  164.7599 C.ar    1  UNL1       -0.0011
     15 C         141.4281  144.7055  163.7726 C.ar    1  UNL1        0.0373
     16 C         141.1376  144.7326  162.3012 C.ar    1  UNL1        0.1500
     17 C         139.7179  144.7499  161.8172 C.ar    1  UNL1        0.0373
     18 C         138.5888  144.7401  162.8047 C.ar    1  UNL1       -0.0011
     19 C         141.8428  143.3488  158.6912 C.3     1  UNL1        0.1388
     20 C         142.3100  144.3993  157.7279 C.2     1  UNL1        0.0706
     21 O         142.6081  144.0322  156.3043 O.co2   1  UNL1       -0.5474
     22 O         142.4791  145.8169  158.1880 O.co2   1  UNL1       -0.5474
     23 O         139.7630  138.1370  160.5680 O.3     1  UNL1       -0.4689
     24 C         138.9981  137.9838  161.8492 C.3     1  UNL1        0.2537
     25 C         138.9856  139.0983  162.8531 C.ar    1  UNL1        0.1359
     26 N         139.4053  138.9957  164.2897 N.ar    1  UNL1       -0.2093
     27 C         139.2303  140.3450  164.9212 C.ar    1  UNL1        0.2290
     28 O         138.7026  141.2816  163.8750 O.2     1  UNL1       -0.4391
     29 C         138.5514  140.5110  162.5969 C.ar    1  UNL1        0.1421
     30 C         138.0533  141.0573  161.2917 C.3     1  UNL1        0.0740
     31 C         139.5304  140.6961  166.3482 C.ar    1  UNL1        0.0536
     32 C         139.0820  139.7876  167.4543 C.ar    1  UNL1        0.0053
     33 C         139.3820  140.1387  168.8815 C.ar    1  UNL1        0.0104
     34 C         140.1307  141.3983  169.2025 C.ar    1  UNL1        0.0685
     35 C         140.5792  142.3068  168.0963 C.ar    1  UNL1        0.0104
     36 C         140.2790  141.9557  166.6692 C.ar    1  UNL1        0.0053
     37 C         140.4308  141.7494  170.6296 C.1     1  UNL1        0.1004
     38 N         140.7309  142.1006  172.0567 N.1     1  UNL1       -0.1908
@<TRIPOS>UNITY_ATOM_ATTR
21 1
charge -1
@<TRIPOS>BOND
     1    12    13    1
     2    13    14   ar
     3    14    15   ar
     4    15    16   ar
     5    16    11    1
     6    11     8    1
     7     8     9    2
     8     8    10   am
     9    10    19    1
    10    19    20    1
    11    20    21   ar
    12    20    22   ar
    13    10     7    1
    14     7     1    1
    15     1     2   ar
    16     2     3   ar
    17     3     4   ar
    18     4     5   ar
    19     5    23    1
    20    23    24    1
    21    24    25    1
    22    25    26   ar
    23    26    27   ar
    24    27    31    1
    25    31    32   ar
    26    32    33   ar
    27    33    34   ar
    28    34    37    1
    29    37    38    3
    30    34    35   ar
    31    35    36   ar
    32    27    28   ar
    33    28    29   ar
    34    29    30    1
    35     5     6   ar
    36    16    17   ar
    37    17    18   ar
    38    18    13   ar
    39     6     1   ar
    40    29    25   ar
    41    36    31   ar
@<TRIPOS>MOLECULE
*****
 38 41 0 0 0
SMALL
GASTEIGER

@<TRIPOS>ATOM
      1 C         140.5630  142.5747  158.6436 C.ar    1  UNL1        0.0008
      2 C         141.1097  143.4875  157.5864 C.ar    1  UNL1       -0.0024
      3 C         141.3300  144.9398  157.8901 C.ar    1  UNL1        0.0028
      4 C         141.0036  145.4793  159.2512 C.ar    1  UNL1        0.0369
      5 C         140.4569  144.5664  160.3085 C.ar    1  UNL1        0.1389
      6 C         140.2366  143.1141  160.0047 C.ar    1  UNL1        0.0343
      7 C         140.3427  141.1224  158.3398 C.3     1  UNL1        0.1239
      8 C         139.5767  139.1949  159.9045 C.2     1  UNL1        0.4100
      9 O         138.1712  139.3460  159.4027 O.2     1  UNL1       -0.2258
     10 N         140.6624  140.0831  159.3731 N.am    1  UNL1       -0.2363
     11 O         139.8964  138.1556  160.9378 O.3     1  UNL1       -0.4101
     12 C         138.4012  139.0709  166.6759 C.3     1  UNL1        0.0310
     13 C         138.7750  138.8421  165.2414 C.ar    1  UNL1       -0.0217
     14 C         138.2228  139.7359  164.1707 C.ar    1  UNL1       -0.0011
     15 C         138.5966  139.5071  162.7362 C.ar    1  UNL1        0.0373
     16 C         139.5226  138.3845  162.3723 C.ar    1  UNL1        0.1500
     17 C         140.0748  137.4907  163.4430 C.ar    1  UNL1        0.0373
     18 C         139.7009  137.7195  164.8775 C.ar    1  UNL1       -0.0011
     19 C         142.0679  139.9320  159.8750 C.3     1  UNL1        0.1388
     20 C         142.9216  138.8003  159.3849 C.2     1  UNL1        0.0706
     21 O         143.2530  137.6595  160.3008 O.co2   1  UNL1       -0.5474
     22 O         143.4441  138.8093  157.9788 O.co2   1  UNL1       -0.5474
     23 O         140.1305  145.1059  161.6695 O.3     1  UNL1       -0.4689
     24 C         139.1576  144.3799  162.5505 C.3     1  UNL1        0.2537
     25 C         139.6484  143.6388  163.7587 C.ar    1  UNL1        0.1359
     26 N         140.5906  142.4715  163.7547 N.ar    1  UNL1       -0.2093
     27 C         140.8078  142.0461  165.1766 C.ar    1  UNL1        0.2290
     28 O         139.9998  142.9504  166.0595 O.2     1  UNL1       -0.4391
     29 C         139.2833  143.9347  165.1832 C.ar    1  UNL1        0.1421
     30 C         138.3633  145.0238  165.6496 C.3     1  UNL1        0.0740
     31 C         141.6797  140.9150  165.6350 C.ar    1  UNL1        0.0536
     32 C         141.7211  140.5408  167.0870 C.ar    1  UNL1        0.0053
     33 C         142.5930  139.4097  167.5456 C.ar    1  UNL1        0.0104
     34 C         143.4237  138.6527  166.5520 C.ar    1  UNL1        0.0685
     35 C         143.3823  139.0269  165.1000 C.ar    1  UNL1        0.0104
     36 C         142.5103  140.1580  164.6415 C.ar    1  UNL1        0.0053
     37 C         144.2957  137.5216  167.0105 C.1     1  UNL1        0.1004
     38 N         145.1677  136.3905  167.4690 N.1     1  UNL1       -0.1908
@<TRIPOS>UNITY_ATOM_ATTR
21 1
charge -1
@<TRIPOS>BOND
     1    12    13    1
     2    13    14   ar
     3    14    15   ar
     4    15    16   ar
     5    16    11    1
     6    11     8    1
     7     8     9    2
     8     8    10   am
     9    10    19    1
    10    19    20    1
    11    20    21   ar
    12    20    22   ar
    13    10     7    1
    14     7     1    1
    15     1     2   ar
    16     2     3   ar
    17     3     4   ar
    18     4     5   ar
    19     5    23    1
    20    23    24    1
    21    24    25    1
    22    25    26   ar
    23    26    27   ar
    24    27    31    1
    25    31    32   ar
    26    32    33   ar
    27    33    34   ar
    28    34    37    1
    29    37    38    3
    30    34    35   ar
    31    35    36   ar
    32    27    28   ar
    33    28    29   ar
    34    29    30    1
    35     5     6   ar
    36    16    17   ar
    37    17    18   ar
    38    18    13   ar
    39     6     1   ar
    40    29    25   ar
    41    36    31   ar
@<TRIPOS>MOLECULE
*****
 38 41 0 0 0
SMALL
GASTEIGER

@<TRIPOS>ATOM
      1 C         139.1727  141.6703  158.3096 C.ar    1  UNL1        0.0008
      2 C         138.6845  142.6259  157.2615 C.ar    1  UNL1       -0.0024
      3 C         139.3872  143.9348  157.0542 C.ar    1  UNL1        0.0028
      4 C         140.5781  144.2881  157.8949 C.ar    1  UNL1        0.0369
      5 C         141.0663  143.3325  158.9431 C.ar    1  UNL1        0.1389
      6 C         140.3636  142.0236  159.1504 C.ar    1  UNL1        0.0343
      7 C         138.4700  140.3614  158.5169 C.3     1  UNL1        0.1239
      8 C         138.7629  138.8083  160.5790 C.2     1  UNL1        0.4100
      9 O         137.6388  139.5184  161.2735 O.2     1  UNL1       -0.2258
     10 N         139.1785  139.2298  159.2007 N.am    1  UNL1       -0.2363
     11 O         139.4714  137.6768  161.2628 O.3     1  UNL1       -0.4101
     12 C         143.4143  138.8140  165.6400 C.3     1  UNL1        0.0310
     13 C         142.4286  138.5297  164.5457 C.ar    1  UNL1       -0.0217
     14 C         141.3340  137.5275  164.7640 C.ar    1  UNL1       -0.0011
     15 C         140.3483  137.2432  163.6697 C.ar    1  UNL1        0.0373
     16 C         140.4571  137.9611  162.3571 C.ar    1  UNL1        0.1500
     17 C         141.5516  138.9632  162.1388 C.ar    1  UNL1        0.0373
     18 C         142.5374  139.2475  163.2332 C.ar    1  UNL1       -0.0011
     19 C         140.3025  138.5198  158.5063 C.3     1  UNL1        0.1388
     20 C         140.2154  138.2352  157.0361 C.2     1  UNL1        0.0706
     21 O         141.3369  138.6400  156.1260 O.co2   1  UNL1       -0.5474
     22 O         139.0066  137.5458  156.4760 O.co2   1  UNL1       -0.5474
     23 O         142.2572  143.6858  159.7838 O.3     1  UNL1       -0.4689
     24 C         142.0875  144.5462  161.0008 C.3     1  UNL1        0.2537
     25 C         141.8569  143.9129  162.3408 C.ar    1  UNL1        0.1359
     26 N         140.8374  142.8580  162.6539 N.ar    1  UNL1       -0.2093
     27 C         140.9558  142.5164  164.1096 C.ar    1  UNL1        0.2290
     28 O         142.0485  143.3601  164.6964 O.2     1  UNL1       -0.4391
     29 C         142.6054  144.2232  163.6032 C.ar    1  UNL1        0.1421
     30 C         143.7158  145.2213  163.7471 C.3     1  UNL1        0.0740
     31 C         140.1271  141.5081  164.8488 C.ar    1  UNL1        0.0536
     32 C         138.9277  140.8947  164.1892 C.ar    1  UNL1        0.0053
     33 C         138.0988  139.8863  164.9284 C.ar    1  UNL1        0.0104
     34 C         138.4695  139.4915  166.3273 C.ar    1  UNL1        0.0685
     35 C         139.6689  140.1050  166.9869 C.ar    1  UNL1        0.0104
     36 C         140.4977  141.1133  166.2476 C.ar    1  UNL1        0.0053
     37 C         137.6407  138.4832  167.0666 C.1     1  UNL1        0.1004
     38 N         136.8120  137.4749  167.8058 N.1     1  UNL1       -0.1908
@<TRIPOS>UNITY_ATOM_ATTR
21 1
charge -1
@<TRIPOS>BOND
     1    12    13    1
     2    13    14   ar
     3    14    15   ar
     4    15    16   ar
     5    16    11    1
     6    11     8    1
     7     8     9    2
     8     8    10   am
     9    10    19    1
    10    19    20    1
    11    20    21   ar
    12    20    22   ar
    13    10     7    1
    14     7     1    1
    15     1     2   ar
    16     2     3   ar
    17     3     4   ar
    18     4     5   ar
    19     5    23    1
    20    23    24    1
    21    24    25    1
    22    25    26   ar
    23    26    27   ar
    24    27    31    1
    25    31    32   ar
    26    32    33   ar
    27    33    34   ar
    28    34    37    1
    29    37    38    3
    30    34    35   ar
    31    35    36   ar
    32    27    28   ar
    33    28    29   ar
    34    29    30    1
    35     5     6   ar
    36    16    17   ar
    37    17    18   ar
    38    18    13   ar
    39     6     1   ar
    40    29    25   ar
    41    36    31   ar
@<TRIPOS>MOLECULE
*****
 38 41 0 0 0
SMALL
GASTEIGER

@<TRIPOS>ATOM
      1 C         143.3748  140.5148  161.2814 C.ar    1  UNL1        0.0008
      2 C         144.2903  139.3891  161.6617 C.ar    1  UNL1       -0.0024
      3 C         143.9968  137.9938  161.1961 C.ar    1  UNL1        0.0028
      4 C         142.7878  137.7240  160.3503 C.ar    1  UNL1        0.0369
      5 C         141.8722  138.8497  159.9700 C.ar    1  UNL1        0.1389
      6 C         142.1657  140.2451  160.4356 C.ar    1  UNL1        0.0343
      7 C         143.6683  141.9102  161.7470 C.3     1  UNL1        0.1239
      8 C         144.0676  142.3642  164.2738 C.2     1  UNL1        0.4100
      9 O         145.4811  141.8810  164.1372 O.2     1  UNL1       -0.2258
     10 N         143.1612  142.3788  163.0786 N.am    1  UNL1       -0.2363
     11 O         143.5606  142.8328  165.6054 O.3     1  UNL1       -0.4101
     12 C         142.4417  138.8569  169.9574 C.3     1  UNL1        0.0310
     13 C         142.7214  139.8509  168.8694 C.ar    1  UNL1       -0.0217
     14 C         142.8044  139.3970  167.4421 C.ar    1  UNL1       -0.0011
     15 C         143.0841  140.3910  166.3541 C.ar    1  UNL1        0.0373
     16 C         143.2809  141.8388  166.6934 C.ar    1  UNL1        0.1500
     17 C         143.1979  142.2927  168.1207 C.ar    1  UNL1        0.0373
     18 C         142.9182  141.2987  169.2087 C.ar    1  UNL1       -0.0011
     19 C         141.7477  142.8620  163.2152 C.3     1  UNL1        0.1388
     20 C         141.4507  144.3318  163.1784 C.2     1  UNL1        0.0706
     21 O         142.5597  145.3258  163.3577 O.co2   1  UNL1       -0.5474
     22 O         140.0447  144.8076  162.9623 O.co2   1  UNL1       -0.5474
     23 O         140.6632  138.5800  159.1242 O.3     1  UNL1       -0.4689
     24 C         139.2921  138.6652  159.7267 C.3     1  UNL1        0.2537
     25 C         139.0679  139.4754  160.9689 C.ar    1  UNL1        0.1359
     26 N         139.2348  138.9919  162.3791 N.ar    1  UNL1       -0.2093
     27 C         138.9074  140.1291  163.3008 C.ar    1  UNL1        0.2290
     28 O         138.5380  141.3154  162.4604 O.2     1  UNL1       -0.4391
     29 C         138.6372  140.9114  161.0192 C.ar    1  UNL1        0.1421
     30 C         138.3553  141.7893  159.8361 C.3     1  UNL1        0.0740
     31 C         138.9430  140.0872  164.7998 C.ar    1  UNL1        0.0536
     32 C         139.6409  141.1730  165.5640 C.ar    1  UNL1        0.0053
     33 C         139.6766  141.1313  167.0630 C.ar    1  UNL1        0.0104
     34 C         139.0143  140.0036  167.7978 C.ar    1  UNL1        0.0685
     35 C         138.3164  138.9178  167.0336 C.ar    1  UNL1        0.0104
     36 C         138.2807  138.9597  165.5345 C.ar    1  UNL1        0.0053
     37 C         139.0499  139.9618  169.2968 C.1     1  UNL1        0.1004
     38 N         139.0855  139.9200  170.7958 N.1     1  UNL1       -0.1908
@<TRIPOS>UNITY_ATOM_ATTR
21 1
charge -1
@<TRIPOS>BOND
     1    12    13    1
     2    13    14   ar
     3    14    15   ar
     4    15    16   ar
     5    16    11    1
     6    11     8    1
     7     8     9    2
     8     8    10   am
     9    10    19    1
    10    19    20    1
    11    20    21   ar
    12    20    22   ar
    13    10     7    1
    14     7     1    1
    15     1     2   ar
    16     2     3   ar
    17     3     4   ar
    18     4     5   ar
    19     5    23    1
    20    23    24    1
    21    24    25    1
    22    25    26   ar
    23    26    27   ar
    24    27    31    1
    25    31    32   ar
    26    32    33   ar
    27    33    34   ar
    28    34    37    1
    29    37    38    3
    30    34    35   ar
    31    35    36   ar
    32    27    28   ar
    33    28    29   ar
    34    29    30    1
    35     5     6   ar
    36    16    17   ar
    37    17    18   ar
    38    18    13   ar
    39     6     1   ar
    40    29    25   ar
    41    36    31   ar
