@<TRIPOS>MOLECULE
*****
 20 21 0 0 0
SMALL
GASTEIGER

@<TRIPOS>ATOM
      1 C         141.4792  144.3131  163.8503 C.ar    1  UNL1        0.0283
      2 C         142.6924  145.1235  163.5022 C.ar    1  UNL1        0.0024
      3 C         144.0624  144.5445  163.6970 C.ar    1  UNL1        0.0296
      4 C         144.2191  143.1551  164.2399 C.ar    1  UNL1        0.1432
      5 F         145.5891  142.5760  164.4347 F       1  UNL1       -0.2041
      6 C         143.0059  142.3446  164.5879 C.ar    1  UNL1        0.0668
      7 C         141.6359  142.9236  164.3931 C.ar    1  UNL1        0.1448
      8 C         140.1092  144.8921  163.6554 C.3     1  UNL1        0.0987
      9 C         137.8332  144.3534  164.7865 C.3     1  UNL1        0.0861
     10 N         139.1762  145.0204  164.8229 N.3     1  UNL1       -0.2925
     11 H         139.6680  144.6479  165.6352 H       1  UNL1        0.1236
     12 O         140.4227  142.1131  164.7412 O.3     1  UNL1       -0.4537
     13 C         140.1950  141.6740  166.1573 C.ar    1  UNL1        0.1462
     14 C         139.6541  140.3037  166.4399 C.ar    1  UNL1        0.0384
     15 C         139.4264  139.8646  167.8560 C.ar    1  UNL1        0.0154
     16 C         139.7396  140.7958  168.9895 C.ar    1  UNL1        0.0684
     17 CL        139.5120  140.3567  170.4056 Cl      1  UNL1       -0.0814
     18 C         140.2805  142.1660  168.7070 C.ar    1  UNL1        0.0712
     19 CL        140.5938  143.0971  169.8405 Cl      1  UNL1       -0.0813
     20 C         140.5082  142.6051  167.2908 C.ar    1  UNL1        0.0497
@<TRIPOS>BOND
     1     9    10    1
     2    10     8    1
     3     8     1    1
     4     1     2   ar
     5     2     3   ar
     6     3     4   ar
     7     4     5    1
     8     4     6   ar
     9     6     7   ar
    10     7    12    1
    11    12    13    1
    12    13    14   ar
    13    14    15   ar
    14    15    16   ar
    15    16    17    1
    16    16    18   ar
    17    18    19    1
    18    18    20   ar
    19     7     1   ar
    20    20    13   ar
    21    10    11    1
@<TRIPOS>MOLECULE
*****
 20 21 0 0 0
SMALL
GASTEIGER

@<TRIPOS>ATOM
      1 C         138.7429  142.6327  164.1116 C.ar    1  UNL1        0.0283
      2 C         138.3794  144.0561  163.8091 C.ar    1  UNL1        0.0024
      3 C         139.4497  145.1045  163.7369 C.ar    1  UNL1        0.0296
      4 C         140.8837  144.7294  163.9672 C.ar    1  UNL1        0.1432
      5 F         141.9541  145.7777  163.8950 F       1  UNL1       -0.2041
      6 C         141.2472  143.3059  164.2698 C.ar    1  UNL1        0.0668
      7 C         140.1768  142.2576  164.3420 C.ar    1  UNL1        0.1448
      8 C         137.6725  141.5843  164.1839 C.3     1  UNL1        0.0987
      9 C         137.6010  140.6216  161.7718 C.3     1  UNL1        0.0861
     10 N         136.8962  141.2190  162.9535 N.3     1  UNL1       -0.2925
     11 H         136.1850  140.5474  163.2426 H       1  UNL1        0.1236
     12 O         140.5404  140.8340  164.6445 O.3     1  UNL1       -0.4537
     13 C         140.9013  140.4334  166.0442 C.ar    1  UNL1        0.1462
     14 C         142.2682  139.8910  166.3403 C.ar    1  UNL1        0.0384
     15 C         142.6291  139.4904  167.7400 C.ar    1  UNL1        0.0154
     16 C         141.6232  139.6321  168.8437 C.ar    1  UNL1        0.0684
     17 CL        141.9841  139.2315  170.2434 Cl      1  UNL1       -0.0814
     18 C         140.2564  140.1745  168.5477 C.ar    1  UNL1        0.0712
     19 CL        139.2505  140.3162  169.6513 Cl      1  UNL1       -0.0813
     20 C         139.8954  140.5751  167.1479 C.ar    1  UNL1        0.0497
@<TRIPOS>BOND
     1     9    10    1
     2    10     8    1
     3     8     1    1
     4     1     2   ar
     5     2     3   ar
     6     3     4   ar
     7     4     5    1
     8     4     6   ar
     9     6     7   ar
    10     7    12    1
    11    12    13    1
    12    13    14   ar
    13    14    15   ar
    14    15    16   ar
    15    16    17    1
    16    16    18   ar
    17    18    19    1
    18    18    20   ar
    19     7     1   ar
    20    20    13   ar
    21    10    11    1
@<TRIPOS>MOLECULE
*****
 20 21 0 0 0
SMALL
GASTEIGER

@<TRIPOS>ATOM
      1 C         142.1826  144.0935  163.7933 C.ar    1  UNL1        0.0283
      2 C         143.2258  144.1773  162.7188 C.ar    1  UNL1        0.0024
      3 C         144.5003  143.3970  162.8484 C.ar    1  UNL1        0.0296
      4 C         144.7315  142.5329  164.0525 C.ar    1  UNL1        0.1432
      5 F         146.0060  141.7525  164.1821 F       1  UNL1       -0.2041
      6 C         143.6882  142.4491  165.1270 C.ar    1  UNL1        0.0668
      7 C         142.4138  143.2294  164.9974 C.ar    1  UNL1        0.1448
      8 C         140.9081  144.8739  163.6637 C.3     1  UNL1        0.0987
      9 C         139.7235  146.2442  161.8012 C.3     1  UNL1        0.0861
     10 N         140.8542  146.0796  162.7730 N.3     1  UNL1       -0.2925
     11 H         140.8387  146.8964  163.3838 H       1  UNL1        0.1236
     12 O         141.3705  143.1456  166.0719 O.3     1  UNL1       -0.4537
     13 C         140.4983  141.9298  166.1773 C.ar    1  UNL1        0.1462
     14 C         140.3886  141.1962  167.4811 C.ar    1  UNL1        0.0384
     15 C         139.5165  139.9804  167.5865 C.ar    1  UNL1        0.0154
     16 C         138.7540  139.4982  166.3881 C.ar    1  UNL1        0.0684
     17 CL        137.8818  138.2824  166.4935 Cl      1  UNL1       -0.0814
     18 C         138.8636  140.2318  165.0844 C.ar    1  UNL1        0.0712
     19 CL        138.1011  139.7496  163.8860 Cl      1  UNL1       -0.0813
     20 C         139.7358  141.4476  164.9789 C.ar    1  UNL1        0.0497
@<TRIPOS>BOND
     1     9    10    1
     2    10     8    1
     3     8     1    1
     4     1     2   ar
     5     2     3   ar
     6     3     4   ar
     7     4     5    1
     8     4     6   ar
     9     6     7   ar
    10     7    12    1
    11    12    13    1
    12    13    14   ar
    13    14    15   ar
    14    15    16   ar
    15    16    17    1
    16    16    18   ar
    17    18    19    1
    18    18    20   ar
    19     7     1   ar
    20    20    13   ar
    21    10    11    1
@<TRIPOS>MOLECULE
*****
 20 21 0 0 0
SMALL
GASTEIGER

@<TRIPOS>ATOM
      1 C         140.4388  140.4965  167.3324 C.ar    1  UNL1        0.0283
      2 C         139.5985  140.0257  168.4823 C.ar    1  UNL1        0.0024
      3 C         139.3655  140.9262  169.6591 C.ar    1  UNL1        0.0296
      4 C         139.9728  142.2975  169.6860 C.ar    1  UNL1        0.1432
      5 F         139.7399  143.1979  170.8628 F       1  UNL1       -0.2041
      6 C         140.8131  142.7683  168.5362 C.ar    1  UNL1        0.0668
      7 C         141.0461  141.8678  167.3594 C.ar    1  UNL1        0.1448
      8 C         140.6718  139.5961  166.1556 C.3     1  UNL1        0.0987
      9 C         143.0926  138.7442  166.5606 C.3     1  UNL1        0.0861
     10 N         142.0664  139.3600  165.6563 N.3     1  UNL1       -0.2925
     11 H         141.9884  138.7512  164.8417 H       1  UNL1        0.1236
     12 O         141.8864  142.3386  166.2095 O.3     1  UNL1       -0.4537
     13 C         141.2955  143.2445  165.1702 C.ar    1  UNL1        0.1462
     14 C         142.1889  144.1233  164.3457 C.ar    1  UNL1        0.0384
     15 C         141.5980  145.0292  163.3064 C.ar    1  UNL1        0.0154
     16 C         140.1137  145.0564  163.0916 C.ar    1  UNL1        0.0684
     17 CL        139.5227  145.9622  162.0523 Cl      1  UNL1       -0.0814
     18 C         139.2203  144.1777  163.9160 C.ar    1  UNL1        0.0712
     19 CL        137.7360  144.2049  163.7012 Cl      1  UNL1       -0.0813
     20 C         139.8112  143.2717  164.9554 C.ar    1  UNL1        0.0497
@<TRIPOS>BOND
     1     9    10    1
     2    10     8    1
     3     8     1    1
     4     1     2   ar
     5     2     3   ar
     6     3     4   ar
     7     4     5    1
     8     4     6   ar
     9     6     7   ar
    10     7    12    1
    11    12    13    1
    12    13    14   ar
    13    14    15   ar
    14    15    16   ar
    15    16    17    1
    16    16    18   ar
    17    18    19    1
    18    18    20   ar
    19     7     1   ar
    20    20    13   ar
    21    10    11    1
@<TRIPOS>MOLECULE
*****
 20 21 0 0 0
SMALL
GASTEIGER

@<TRIPOS>ATOM
      1 C         144.4893  142.0203  163.8767 C.ar    1  UNL1        0.0283
      2 C         144.6579  143.1793  162.9396 C.ar    1  UNL1        0.0024
      3 C         143.7028  144.3346  162.9961 C.ar    1  UNL1        0.0296
      4 C         142.5792  144.3309  163.9898 C.ar    1  UNL1        0.1432
      5 F         141.6242  145.4862  164.0464 F       1  UNL1       -0.2041
      6 C         142.4106  143.1719  164.9269 C.ar    1  UNL1        0.0668
      7 C         143.3657  142.0166  164.8704 C.ar    1  UNL1        0.1448
      8 C         145.4444  140.8650  163.8201 C.3     1  UNL1        0.0987
      9 C         144.0088  139.0604  162.6233 C.3     1  UNL1        0.0861
     10 N         144.9202  139.4616  163.7450 N.3     1  UNL1       -0.2925
     11 H         145.7323  138.8461  163.6991 H       1  UNL1        0.1236
     12 O         143.1971  140.8575  165.8075 O.3     1  UNL1       -0.4537
     13 C         141.8282  140.3113  166.0862 C.ar    1  UNL1        0.1462
     14 C         141.0887  140.7347  167.3208 C.ar    1  UNL1        0.0384
     15 C         139.7198  140.1886  167.5994 C.ar    1  UNL1        0.0154
     16 C         139.0903  139.2190  166.6436 C.ar    1  UNL1        0.0684
     17 CL        137.7213  138.6728  166.9223 Cl      1  UNL1       -0.0814
     18 C         139.8296  138.7956  165.4091 C.ar    1  UNL1        0.0712
     19 CL        139.2001  137.8260  164.4533 Cl      1  UNL1       -0.0813
     20 C         141.1986  139.3418  165.1304 C.ar    1  UNL1        0.0497
@<TRIPOS>BOND
     1     9    10    1
     2    10     8    1
     3     8     1    1
     4     1     2   ar
     5     2     3   ar
     6     3     4   ar
     7     4     5    1
     8     4     6   ar
     9     6     7   ar
    10     7    12    1
    11    12    13    1
    12    13    14   ar
    13    14    15   ar
    14    15    16   ar
    15    16    17    1
    16    16    18   ar
    17    18    19    1
    18    18    20   ar
    19     7     1   ar
    20    20    13   ar
    21    10    11    1
@<TRIPOS>MOLECULE
*****
 20 21 0 0 0
SMALL
GASTEIGER

@<TRIPOS>ATOM
      1 C         138.2534  139.5032  162.6723 C.ar    1  UNL1        0.0283
      2 C         137.9983  140.4631  161.5483 C.ar    1  UNL1        0.0024
      3 C         137.7515  141.9133  161.8419 C.ar    1  UNL1        0.0296
      4 C         137.7598  142.4035  163.2595 C.ar    1  UNL1        0.1432
      5 F         137.5130  143.8536  163.5531 F       1  UNL1       -0.2041
      6 C         138.0150  141.4436  164.3835 C.ar    1  UNL1        0.0668
      7 C         138.2618  139.9934  164.0899 C.ar    1  UNL1        0.1448
      8 C         138.5002  138.0531  162.3788 C.3     1  UNL1        0.0987
      9 C         141.0916  137.9649  162.2146 C.3     1  UNL1        0.0861
     10 N         139.8054  137.4216  162.7630 N.3     1  UNL1       -0.2925
     11 H         139.8717  137.4775  163.7793 H       1  UNL1        0.1236
     12 O         138.5169  139.0335  165.2140 O.3     1  UNL1       -0.4537
     13 C         139.5729  139.3377  166.2350 C.ar    1  UNL1        0.1462
     14 C         141.0235  139.2230  165.8708 C.ar    1  UNL1        0.0384
     15 C         142.0794  139.5272  166.8918 C.ar    1  UNL1        0.0154
     16 C         141.6848  139.9462  168.2769 C.ar    1  UNL1        0.0684
     17 CL        142.7407  140.2505  169.2979 Cl      1  UNL1       -0.0814
     18 C         140.2342  140.0610  168.6411 C.ar    1  UNL1        0.0712
     19 CL        139.8396  140.4800  170.0263 Cl      1  UNL1       -0.0813
     20 C         139.1782  139.7567  167.6201 C.ar    1  UNL1        0.0497
@<TRIPOS>BOND
     1     9    10    1
     2    10     8    1
     3     8     1    1
     4     1     2   ar
     5     2     3   ar
     6     3     4   ar
     7     4     5    1
     8     4     6   ar
     9     6     7   ar
    10     7    12    1
    11    12    13    1
    12    13    14   ar
    13    14    15   ar
    14    15    16   ar
    15    16    17    1
    16    16    18   ar
    17    18    19    1
    18    18    20   ar
    19     7     1   ar
    20    20    13   ar
    21    10    11    1
@<TRIPOS>MOLECULE
*****
 20 21 0 0 0
SMALL
GASTEIGER

@<TRIPOS>ATOM
      1 C         141.0922  139.6283  165.7357 C.ar    1  UNL1        0.0283
      2 C         141.5583  138.2816  165.2677 C.ar    1  UNL1        0.0024
      3 C         140.6891  137.4598  164.3627 C.ar    1  UNL1        0.0296
      4 C         139.3537  137.9848  163.9257 C.ar    1  UNL1        0.1432
      5 F         138.4844  137.1630  163.0206 F       1  UNL1       -0.2041
      6 C         138.8875  139.3315  164.3936 C.ar    1  UNL1        0.0668
      7 C         139.7567  140.1533  165.2986 C.ar    1  UNL1        0.1448
      8 C         141.9614  140.4501  166.6407 C.3     1  UNL1        0.0987
      9 C         140.7807  140.0792  168.9250 C.3     1  UNL1        0.0861
     10 N         141.4033  141.0015  167.9192 N.3     1  UNL1       -0.2925
     11 H         142.1697  141.4797  168.3929 H       1  UNL1        0.1236
     12 O         139.2905  141.5000  165.7666 O.3     1  UNL1       -0.4537
     13 C         139.3599  142.6802  164.8434 C.ar    1  UNL1        0.1462
     14 C         138.1545  143.0798  164.0450 C.ar    1  UNL1        0.0384
     15 C         138.2239  144.2600  163.1218 C.ar    1  UNL1        0.0154
     16 C         139.4987  145.0406  162.9969 C.ar    1  UNL1        0.0684
     17 CL        139.5681  146.2207  162.0737 Cl      1  UNL1       -0.0814
     18 C         140.7041  144.6410  163.7952 C.ar    1  UNL1        0.0712
     19 CL        141.9789  145.4216  163.6703 Cl      1  UNL1       -0.0813
     20 C         140.6347  143.4608  164.7185 C.ar    1  UNL1        0.0497
@<TRIPOS>BOND
     1     9    10    1
     2    10     8    1
     3     8     1    1
     4     1     2   ar
     5     2     3   ar
     6     3     4   ar
     7     4     5    1
     8     4     6   ar
     9     6     7   ar
    10     7    12    1
    11    12    13    1
    12    13    14   ar
    13    14    15   ar
    14    15    16   ar
    15    16    17    1
    16    16    18   ar
    17    18    19    1
    18    18    20   ar
    19     7     1   ar
    20    20    13   ar
    21    10    11    1
@<TRIPOS>MOLECULE
*****
 20 21 0 0 0
SMALL
GASTEIGER

@<TRIPOS>ATOM
      1 C         138.4768  141.5268  163.3844 C.ar    1  UNL1        0.0283
      2 C         137.5278  142.6414  163.0575 C.ar    1  UNL1        0.0024
      3 C         137.6302  143.9506  163.7824 C.ar    1  UNL1        0.0296
      4 C         138.6817  144.1451  164.8343 C.ar    1  UNL1        0.1432
      5 F         138.7842  145.4543  165.5592 F       1  UNL1       -0.2041
      6 C         139.6308  143.0305  165.1612 C.ar    1  UNL1        0.0668
      7 C         139.5283  141.7213  164.4363 C.ar    1  UNL1        0.1448
      8 C         138.3743  140.2176  162.6595 C.3     1  UNL1        0.0987
      9 C         139.1083  137.7345  162.8722 C.3     1  UNL1        0.0861
     10 N         138.3946  138.9304  163.4293 N.3     1  UNL1       -0.2925
     11 H         138.8225  139.1342  164.3326 H       1  UNL1        0.1236
     12 O         140.4774  140.6067  164.7632 O.3     1  UNL1       -0.4537
     13 C         140.8319  140.3183  166.1919 C.ar    1  UNL1        0.1462
     14 C         142.2337  139.9240  166.5519 C.ar    1  UNL1        0.0384
     15 C         142.5883  139.6356  167.9805 C.ar    1  UNL1        0.0154
     16 C         141.5411  139.7416  169.0493 C.ar    1  UNL1        0.0684
     17 CL        141.8957  139.4533  170.4779 Cl      1  UNL1       -0.0814
     18 C         140.1394  140.1360  168.6894 C.ar    1  UNL1        0.0712
     19 CL        139.0922  140.2420  169.7581 Cl      1  UNL1       -0.0813
     20 C         139.7848  140.4244  167.2606 C.ar    1  UNL1        0.0497
@<TRIPOS>BOND
     1     9    10    1
     2    10     8    1
     3     8     1    1
     4     1     2   ar
     5     2     3   ar
     6     3     4   ar
     7     4     5    1
     8     4     6   ar
     9     6     7   ar
    10     7    12    1
    11    12    13    1
    12    13    14   ar
    13    14    15   ar
    14    15    16   ar
    15    16    17    1
    16    16    18   ar
    17    18    19    1
    18    18    20   ar
    19     7     1   ar
    20    20    13   ar
    21    10    11    1
@<TRIPOS>MOLECULE
*****
 20 21 0 0 0
SMALL
GASTEIGER

@<TRIPOS>ATOM
      1 C         139.5623  139.9832  167.8474 C.ar    1  UNL1        0.0283
      2 C         138.2267  139.3136  167.7142 C.ar    1  UNL1        0.0024
      3 C         137.9195  138.4878  166.5002 C.ar    1  UNL1        0.0296
      4 C         138.9478  138.3316  165.4195 C.ar    1  UNL1        0.1432
      5 F         138.6405  137.5058  164.2055 F       1  UNL1       -0.2041
      6 C         140.2834  139.0012  165.5526 C.ar    1  UNL1        0.0668
      7 C         140.5907  139.8270  166.7666 C.ar    1  UNL1        0.1448
      8 C         139.8696  140.8090  169.0613 C.3     1  UNL1        0.0987
      9 C         141.5016  142.7564  169.6036 C.3     1  UNL1        0.0861
     10 N         140.2746  142.2452  168.9086 N.3     1  UNL1       -0.2925
     11 H         140.4119  142.4079  167.9110 H       1  UNL1        0.1236
     12 O         141.9263  140.4966  166.8997 O.3     1  UNL1       -0.4537
     13 C         142.2769  141.6539  166.0122 C.ar    1  UNL1        0.1462
     14 C         143.7040  141.8881  165.6137 C.ar    1  UNL1        0.0384
     15 C         144.0546  143.0453  164.7262 C.ar    1  UNL1        0.0154
     16 C         142.9782  143.9684  164.2370 C.ar    1  UNL1        0.0684
     17 CL        143.3288  145.1257  163.3495 Cl      1  UNL1       -0.0814
     18 C         141.5512  143.7343  164.6354 C.ar    1  UNL1        0.0712
     19 CL        140.4748  144.6574  164.1463 Cl      1  UNL1       -0.0813
     20 C         141.2005  142.5770  165.5230 C.ar    1  UNL1        0.0497
@<TRIPOS>BOND
     1     9    10    1
     2    10     8    1
     3     8     1    1
     4     1     2   ar
     5     2     3   ar
     6     3     4   ar
     7     4     5    1
     8     4     6   ar
     9     6     7   ar
    10     7    12    1
    11    12    13    1
    12    13    14   ar
    13    14    15   ar
    14    15    16   ar
    15    16    17    1
    16    16    18   ar
    17    18    19    1
    18    18    20   ar
    19     7     1   ar
    20    20    13   ar
    21    10    11    1
