@<TRIPOS>MOLECULE
*****
 41 44 0 0 0
SMALL
GASTEIGER

@<TRIPOS>ATOM
      1 C         142.5594  140.6626  168.0029 C.3     1  UNL1        0.0781
      2 C         142.8033  139.8028  166.7983 C.3     1  UNL1        0.0372
      3 C         143.3657  140.4080  165.5463 C.3     1  UNL1        0.0738
      4 N         143.6844  141.8730  165.4991 N.3     1  UNL1       -0.2725
      5 C         143.4405  142.7329  166.7038 C.3     1  UNL1        0.0738
      6 C         142.8781  142.1277  167.9557 C.3     1  UNL1        0.0372
      7 N         141.9969  140.0574  169.2549 N.am    1  UNL1       -0.2808
      8 C         140.5304  140.1702  169.5491 C.2     1  UNL1        0.2300
      9 O         139.9679  139.5650  170.8011 O.2     1  UNL1       -0.2745
     10 C         143.0232  137.8456  170.1519 C.3     1  UNL1        0.0233
     11 C         142.9010  139.3394  170.2125 C.3     1  UNL1        0.0934
     12 C         139.6264  140.8883  168.5915 C.3     1  UNL1        0.1116
     13 C         139.3799  140.3217  167.2246 C.ar    1  UNL1       -0.0130
     14 C         139.6182  141.1667  166.0083 C.ar    1  UNL1       -0.0025
     15 C         139.3718  140.6001  164.6415 C.ar    1  UNL1        0.0180
     16 C         138.8871  139.1886  164.4909 C.ar    1  UNL1        0.1057
     17 C         138.6488  138.3436  165.7071 C.ar    1  UNL1        0.0180
     18 C         138.8952  138.9102  167.0740 C.ar    1  UNL1       -0.0025
     19 S         138.6406  138.6220  163.1240 S.O2    1  UNL1        0.0104
     20 C         138.3942  138.0555  161.7572 C.3     1  UNL1        0.1816
     21 O         139.4970  137.4375  163.4606 O.2     1  UNL1       -0.1686
     22 O         137.7842  139.8066  162.7874 O.2     1  UNL1       -0.1686
     23 C         144.2468  142.4782  164.2471 C.3     1  UNL1        0.0738
     24 C         143.4113  143.4150  163.4260 C.3     1  UNL1        0.0378
     25 C         142.1718  142.9141  162.7458 C.3     1  UNL1        0.0815
     26 C         140.8281  143.4439  163.1503 C.ar    1  UNL1       -0.0077
     27 C         140.6712  144.1776  164.4493 C.ar    1  UNL1       -0.0030
     28 C         139.3275  144.7075  164.8538 C.ar    1  UNL1       -0.0003
     29 C         138.1406  144.5036  163.9595 C.ar    1  UNL1       -0.0000
     30 C         138.2975  143.7700  162.6606 C.ar    1  UNL1       -0.0003
     31 C         139.6412  143.2401  162.2560 C.ar    1  UNL1       -0.0030
     32 N         142.2760  141.8834  161.6610 N.3     1  UNL1       -0.2678
     33 C         142.7107  142.2861  160.2830 C.3     1  UNL1        0.0917
     34 C         142.8148  141.2554  159.1982 C.3     1  UNL1        0.1128
     35 N         142.4843  139.8219  159.4914 N.3     1  UNL1       -0.1565
     36 C         142.0496  139.4192  160.8694 C.3     1  UNL1        0.1128
     37 C         141.9454  140.4499  161.9542 C.3     1  UNL1        0.0917
     38 S         142.5884  138.7912  158.4066 S.O2    1  UNL1        0.0457
     39 C         142.6925  137.7604  157.3219 C.3     1  UNL1        0.1960
     40 O         143.9229  139.3471  158.0065 O.2     1  UNL1       -0.1572
     41 O         141.2540  138.2353  158.8068 O.2     1  UNL1       -0.1572
@<TRIPOS>BOND
     1    10    11    1
     2    11     7    1
     3     7     8   am
     4     8     9    2
     5     8    12    1
     6    12    13    1
     7    13    14   ar
     8    14    15   ar
     9    15    16   ar
    10    16    19    1
    11    19    20    1
    12    19    21    2
    13    19    22    2
    14    16    17   ar
    15    17    18   ar
    16     7     1    1
    17     1     2    1
    18     2     3    1
    19     3     4    1
    20     4    23    1
    21    23    24    1
    22    24    25    1
    23    25    26    1
    24    26    27   ar
    25    27    28   ar
    26    28    29   ar
    27    29    30   ar
    28    30    31   ar
    29    25    32    1
    30    32    33    1
    31    33    34    1
    32    34    35    1
    33    35    38    1
    34    38    39    1
    35    38    40    2
    36    38    41    2
    37    35    36    1
    38    36    37    1
    39     4     5    1
    40     5     6    1
    41    18    13   ar
    42     6     1    1
    43    31    26   ar
    44    37    32    1
@<TRIPOS>MOLECULE
*****
 41 44 0 0 0
SMALL
GASTEIGER

@<TRIPOS>ATOM
      1 C         142.3018  144.2430  161.5905 C.3     1  UNL1        0.0781
      2 C         143.0483  144.7439  162.7912 C.3     1  UNL1        0.0372
      3 C         144.1623  143.9273  163.3762 C.3     1  UNL1        0.0738
      4 N         144.5298  142.6098  162.7605 N.3     1  UNL1       -0.2725
      5 C         143.7832  142.1088  161.5597 C.3     1  UNL1        0.0738
      6 C         142.6693  142.9254  160.9747 C.3     1  UNL1        0.0372
      7 N         141.1878  145.0596  161.0055 N.am    1  UNL1       -0.2808
      8 C         140.1221  145.6229  161.8982 C.2     1  UNL1        0.2300
      9 O         139.0081  146.4395  161.3132 O.2     1  UNL1       -0.2745
     10 C         140.2177  144.5097  158.6589 C.3     1  UNL1        0.0233
     11 C         141.1396  145.3129  159.5278 C.3     1  UNL1        0.0934
     12 C         140.1703  145.3696  163.3758 C.3     1  UNL1        0.1116
     13 C         139.7557  144.0355  163.9220 C.ar    1  UNL1       -0.0130
     14 C         138.8838  143.1287  163.1050 C.ar    1  UNL1       -0.0025
     15 C         138.4692  141.7946  163.6513 C.ar    1  UNL1        0.0180
     16 C         138.9266  141.3673  165.0144 C.ar    1  UNL1        0.1057
     17 C         139.7985  142.2741  165.8314 C.ar    1  UNL1        0.0180
     18 C         140.2130  143.6082  165.2852 C.ar    1  UNL1       -0.0025
     19 S         138.5120  140.0332  165.5607 S.O2    1  UNL1        0.0104
     20 C         138.0974  138.6992  166.1069 C.3     1  UNL1        0.1816
     21 O         139.2214  140.3392  166.8464 O.2     1  UNL1       -0.1686
     22 O         137.8026  139.7272  164.2749 O.2     1  UNL1       -0.1686
     23 C         145.6437  141.7932  163.3455 C.3     1  UNL1        0.0738
     24 C         145.3554  140.4442  163.9346 C.3     1  UNL1        0.0378
     25 C         143.9523  140.0775  164.3179 C.3     1  UNL1        0.0815
     26 C         143.0468  139.4262  163.3151 C.ar    1  UNL1       -0.0077
     27 C         141.5856  139.7649  163.2926 C.ar    1  UNL1       -0.0030
     28 C         140.6801  139.1136  162.2898 C.ar    1  UNL1       -0.0003
     29 C         141.2356  138.1236  161.3093 C.ar    1  UNL1       -0.0000
     30 C         142.6967  137.7849  161.3317 C.ar    1  UNL1       -0.0003
     31 C         143.6023  138.4363  162.3346 C.ar    1  UNL1       -0.0030
     32 N         143.4547  140.3622  165.7040 N.3     1  UNL1       -0.2678
     33 C         143.3710  141.7770  166.1951 C.3     1  UNL1        0.0917
     34 C         142.8734  142.0616  167.5813 C.3     1  UNL1        0.1128
     35 N         142.4596  140.9314  168.4764 N.3     1  UNL1       -0.1565
     36 C         142.5434  139.5165  167.9853 C.3     1  UNL1        0.1128
     37 C         143.0409  139.2319  166.5992 C.3     1  UNL1        0.0917
     38 S         141.9620  141.2159  169.8626 S.O2    1  UNL1        0.0457
     39 C         141.4645  141.5006  171.2487 C.3     1  UNL1        0.1960
     40 O         141.2116  139.9172  169.8599 O.2     1  UNL1       -0.1572
     41 O         142.7124  142.5147  169.8653 O.2     1  UNL1       -0.1572
@<TRIPOS>BOND
     1    10    11    1
     2    11     7    1
     3     7     8   am
     4     8     9    2
     5     8    12    1
     6    12    13    1
     7    13    14   ar
     8    14    15   ar
     9    15    16   ar
    10    16    19    1
    11    19    20    1
    12    19    21    2
    13    19    22    2
    14    16    17   ar
    15    17    18   ar
    16     7     1    1
    17     1     2    1
    18     2     3    1
    19     3     4    1
    20     4    23    1
    21    23    24    1
    22    24    25    1
    23    25    26    1
    24    26    27   ar
    25    27    28   ar
    26    28    29   ar
    27    29    30   ar
    28    30    31   ar
    29    25    32    1
    30    32    33    1
    31    33    34    1
    32    34    35    1
    33    35    38    1
    34    38    39    1
    35    38    40    2
    36    38    41    2
    37    35    36    1
    38    36    37    1
    39     4     5    1
    40     5     6    1
    41    18    13   ar
    42     6     1    1
    43    31    26   ar
    44    37    32    1
@<TRIPOS>MOLECULE
*****
 41 44 0 0 0
SMALL
GASTEIGER

@<TRIPOS>ATOM
      1 C         140.3828  139.8134  167.1847 C.3     1  UNL1        0.0781
      2 C         138.9271  139.5170  166.9769 C.3     1  UNL1        0.0372
      3 C         138.4856  138.7296  165.7789 C.3     1  UNL1        0.0738
      4 N         139.4998  138.2386  164.7888 N.3     1  UNL1       -0.2725
      5 C         140.9555  138.5349  164.9967 C.3     1  UNL1        0.0738
      6 C         141.3970  139.3223  166.1946 C.3     1  UNL1        0.0372
      7 N         140.8243  140.6008  168.3827 N.am    1  UNL1       -0.2808
      8 C         140.8813  142.0983  168.3165 C.2     1  UNL1        0.2300
      9 O         141.3228  142.8857  169.5144 O.2     1  UNL1       -0.2745
     10 C         142.5220  139.1713  169.7332 C.3     1  UNL1        0.0233
     11 C         141.2087  139.8907  169.6468 C.3     1  UNL1        0.0934
     12 C         140.4969  142.8083  167.0523 C.3     1  UNL1        0.1116
     13 C         141.4214  142.7904  165.8712 C.ar    1  UNL1       -0.0130
     14 C         140.8862  143.0578  164.4957 C.ar    1  UNL1       -0.0025
     15 C         141.8107  143.0400  163.3147 C.ar    1  UNL1        0.0180
     16 C         143.2705  142.7547  163.5091 C.ar    1  UNL1        0.1057
     17 C         143.8057  142.4873  164.8846 C.ar    1  UNL1        0.0180
     18 C         142.8812  142.5052  166.0656 C.ar    1  UNL1       -0.0025
     19 S         144.1950  142.7368  162.3280 S.O2    1  UNL1        0.0104
     20 C         145.1194  142.7190  161.1469 C.3     1  UNL1        0.1816
     21 O         143.4686  143.9110  161.7417 O.2     1  UNL1       -0.1686
     22 O         144.9214  141.5627  162.9142 O.2     1  UNL1       -0.1686
     23 C         139.0583  137.4512  163.5909 C.3     1  UNL1        0.0738
     24 C         138.2540  138.1143  162.5123 C.3     1  UNL1        0.0378
     25 C         138.8678  139.2001  161.6791 C.3     1  UNL1        0.0815
     26 C         138.5519  140.6374  161.9692 C.ar    1  UNL1       -0.0077
     27 C         139.0718  141.7166  161.0663 C.ar    1  UNL1       -0.0030
     28 C         138.7559  143.1540  161.3564 C.ar    1  UNL1       -0.0003
     29 C         137.9201  143.5122  162.5494 C.ar    1  UNL1       -0.0000
     30 C         137.4002  142.4331  163.4522 C.ar    1  UNL1       -0.0003
     31 C         137.7161  140.9956  163.1621 C.ar    1  UNL1       -0.0030
     32 N         139.7975  138.8485  160.5557 N.3     1  UNL1       -0.2678
     33 C         141.2557  138.6288  160.8299 C.3     1  UNL1        0.0917
     34 C         142.1855  138.2772  159.7064 C.3     1  UNL1        0.1128
     35 N         141.6569  138.1454  158.3089 N.3     1  UNL1       -0.1565
     36 C         140.1987  138.3652  158.0347 C.3     1  UNL1        0.1128
     37 C         139.2689  138.7167  159.1581 C.3     1  UNL1        0.0917
     38 S         142.5866  137.7938  157.1854 S.O2    1  UNL1        0.0457
     39 C         143.5163  137.4422  156.0620 C.3     1  UNL1        0.1960
     40 O         143.5766  138.8019  157.6891 O.2     1  UNL1       -0.1572
     41 O         141.5967  136.7857  156.6817 O.2     1  UNL1       -0.1572
@<TRIPOS>BOND
     1    10    11    1
     2    11     7    1
     3     7     8   am
     4     8     9    2
     5     8    12    1
     6    12    13    1
     7    13    14   ar
     8    14    15   ar
     9    15    16   ar
    10    16    19    1
    11    19    20    1
    12    19    21    2
    13    19    22    2
    14    16    17   ar
    15    17    18   ar
    16     7     1    1
    17     1     2    1
    18     2     3    1
    19     3     4    1
    20     4    23    1
    21    23    24    1
    22    24    25    1
    23    25    26    1
    24    26    27   ar
    25    27    28   ar
    26    28    29   ar
    27    29    30   ar
    28    30    31   ar
    29    25    32    1
    30    32    33    1
    31    33    34    1
    32    34    35    1
    33    35    38    1
    34    38    39    1
    35    38    40    2
    36    38    41    2
    37    35    36    1
    38    36    37    1
    39     4     5    1
    40     5     6    1
    41    18    13   ar
    42     6     1    1
    43    31    26   ar
    44    37    32    1
@<TRIPOS>MOLECULE
*****
 41 44 0 0 0
SMALL
GASTEIGER

@<TRIPOS>ATOM
      1 C         142.7176  140.5575  166.9520 C.3     1  UNL1        0.0781
      2 C         142.9904  139.1347  166.5632 C.3     1  UNL1        0.0372
      3 C         143.6313  138.8278  165.2422 C.3     1  UNL1        0.0738
      4 N         143.9993  139.9437  164.3099 N.3     1  UNL1       -0.2725
      5 C         143.7265  141.3666  164.6986 C.3     1  UNL1        0.0738
      6 C         143.0857  141.6735  166.0196 C.3     1  UNL1        0.0372
      7 N         142.0768  140.8644  168.2730 N.am    1  UNL1       -0.2808
      8 C         140.5831  140.9528  168.3795 C.2     1  UNL1        0.2300
      9 O         139.9423  141.2597  169.7005 O.2     1  UNL1       -0.2745
     10 C         143.5969  142.4081  169.7068 C.3     1  UNL1        0.0233
     11 C         142.9295  141.0828  169.4875 C.3     1  UNL1        0.0934
     12 C         139.7304  140.7343  167.1650 C.3     1  UNL1        0.1116
     13 C         139.6836  141.7739  166.0845 C.ar    1  UNL1       -0.0130
     14 C         139.9098  143.2176  166.4226 C.ar    1  UNL1       -0.0025
     15 C         139.8630  144.2571  165.3422 C.ar    1  UNL1        0.0180
     16 C         139.5899  143.8527  163.9237 C.ar    1  UNL1        0.1057
     17 C         139.3637  142.4090  163.5857 C.ar    1  UNL1        0.0180
     18 C         139.4105  141.3695  164.6661 C.ar    1  UNL1       -0.0025
     19 S         139.5431  144.8923  162.8433 S.O2    1  UNL1        0.0104
     20 C         139.4963  145.9317  161.7629 C.3     1  UNL1        0.1816
     21 O         138.1717  144.4259  162.4540 O.2     1  UNL1       -0.1686
     22 O         140.9146  145.3587  163.2326 O.2     1  UNL1       -0.1686
     23 C         144.6401  139.6369  162.9888 C.3     1  UNL1        0.0738
     24 C         143.8168  139.0738  161.8686 C.3     1  UNL1        0.0378
     25 C         142.4919  139.6896  161.5286 C.3     1  UNL1        0.0815
     26 C         141.2243  139.0712  162.0392 C.ar    1  UNL1       -0.0077
     27 C         141.2782  138.0388  163.1262 C.ar    1  UNL1       -0.0030
     28 C         140.0107  137.4204  163.6368 C.ar    1  UNL1       -0.0003
     29 C         138.6891  137.8342  163.0604 C.ar    1  UNL1       -0.0000
     30 C         138.6351  138.8665  161.9735 C.ar    1  UNL1       -0.0003
     31 C         139.9027  139.4850  161.4628 C.ar    1  UNL1       -0.0030
     32 N         142.4346  140.9238  160.6781 N.3     1  UNL1       -0.2678
     33 C         142.3323  142.2745  161.3224 C.3     1  UNL1        0.0917
     34 C         142.2750  143.5088  160.4718 C.3     1  UNL1        0.1128
     35 N         142.3201  143.3923  158.9771 N.3     1  UNL1       -0.1565
     36 C         142.4223  142.0415  158.3328 C.3     1  UNL1        0.1128
     37 C         142.4796  140.8073  159.1833 C.3     1  UNL1        0.0917
     38 S         142.2628  144.6265  158.1265 S.O2    1  UNL1        0.0457
     39 C         142.2055  145.8607  157.2760 C.3     1  UNL1        0.1960
     40 O         142.6653  143.8193  156.9280 O.2     1  UNL1       -0.1572
     41 O         141.8602  145.4337  159.3249 O.2     1  UNL1       -0.1572
@<TRIPOS>BOND
     1    10    11    1
     2    11     7    1
     3     7     8   am
     4     8     9    2
     5     8    12    1
     6    12    13    1
     7    13    14   ar
     8    14    15   ar
     9    15    16   ar
    10    16    19    1
    11    19    20    1
    12    19    21    2
    13    19    22    2
    14    16    17   ar
    15    17    18   ar
    16     7     1    1
    17     1     2    1
    18     2     3    1
    19     3     4    1
    20     4    23    1
    21    23    24    1
    22    24    25    1
    23    25    26    1
    24    26    27   ar
    25    27    28   ar
    26    28    29   ar
    27    29    30   ar
    28    30    31   ar
    29    25    32    1
    30    32    33    1
    31    33    34    1
    32    34    35    1
    33    35    38    1
    34    38    39    1
    35    38    40    2
    36    38    41    2
    37    35    36    1
    38    36    37    1
    39     4     5    1
    40     5     6    1
    41    18    13   ar
    42     6     1    1
    43    31    26   ar
    44    37    32    1
@<TRIPOS>MOLECULE
*****
 41 44 0 0 0
SMALL
GASTEIGER

@<TRIPOS>ATOM
      1 C         142.9666  141.6238  166.7799 C.3     1  UNL1        0.0781
      2 C         142.9769  140.4960  165.7911 C.3     1  UNL1        0.0372
      3 C         143.7268  140.6375  164.4997 C.3     1  UNL1        0.0738
      4 N         144.4664  141.9069  164.1971 N.3     1  UNL1       -0.2725
      5 C         144.4561  143.0349  165.1860 C.3     1  UNL1        0.0738
      6 C         143.7062  142.8933  166.4773 C.3     1  UNL1        0.0372
      7 N         142.2167  141.4823  168.0712 N.am    1  UNL1       -0.2808
      8 C         140.8595  142.1031  168.2223 C.2     1  UNL1        0.2300
      9 O         140.1096  141.9615  169.5137 O.2     1  UNL1       -0.2745
     10 C         142.4259  139.2949  169.4572 C.3     1  UNL1        0.0233
     11 C         142.8239  140.7201  169.2115 C.3     1  UNL1        0.0934
     12 C         140.2523  142.8653  167.0821 C.3     1  UNL1        0.1116
     13 C         139.6894  142.1287  165.9027 C.ar    1  UNL1       -0.0130
     14 C         139.5743  142.8160  164.5745 C.ar    1  UNL1       -0.0025
     15 C         139.0115  142.0794  163.3952 C.ar    1  UNL1        0.0180
     16 C         138.5638  140.6556  163.5443 C.ar    1  UNL1        0.1057
     17 C         138.6789  139.9683  164.8726 C.ar    1  UNL1        0.0180
     18 C         139.2417  140.7049  166.0518 C.ar    1  UNL1       -0.0025
     19 S         138.0009  139.9190  162.3649 S.O2    1  UNL1        0.0104
     20 C         137.4381  139.1825  161.1857 C.3     1  UNL1        0.1816
     21 O         137.3380  141.1794  161.8942 O.2     1  UNL1       -0.1686
     22 O         138.6639  138.6585  162.8357 O.2     1  UNL1       -0.1686
     23 C         145.2163  142.0485  162.9058 C.3     1  UNL1        0.0738
     24 C         144.7467  143.0255  161.8690 C.3     1  UNL1        0.0378
     25 C         143.3866  142.8721  161.2554 C.3     1  UNL1        0.0815
     26 C         142.3222  143.8938  161.5259 C.ar    1  UNL1       -0.0077
     27 C         142.2756  144.5957  162.8508 C.ar    1  UNL1       -0.0030
     28 C         141.2113  145.6174  163.1213 C.ar    1  UNL1       -0.0003
     29 C         140.1935  145.9374  162.0669 C.ar    1  UNL1       -0.0000
     30 C         140.2401  145.2357  160.7420 C.ar    1  UNL1       -0.0003
     31 C         141.3045  144.2138  160.4715 C.ar    1  UNL1       -0.0030
     32 N         143.0907  141.6970  160.3714 N.3     1  UNL1       -0.2678
     33 C         142.1558  140.6219  160.8407 C.3     1  UNL1        0.0917
     34 C         141.8600  139.4468  159.9566 C.3     1  UNL1        0.1128
     35 N         142.4991  139.3467  158.6033 N.3     1  UNL1       -0.1565
     36 C         143.4339  140.4217  158.1340 C.3     1  UNL1        0.1128
     37 C         143.7298  141.5969  159.0180 C.3     1  UNL1        0.0917
     38 S         142.2032  138.1715  157.7192 S.O2    1  UNL1        0.0457
     39 C         141.9074  136.9964  156.8352 C.3     1  UNL1        0.1960
     40 O         143.6015  138.2258  157.1791 O.2     1  UNL1       -0.1572
     41 O         140.8049  138.1172  158.2594 O.2     1  UNL1       -0.1572
@<TRIPOS>BOND
     1    10    11    1
     2    11     7    1
     3     7     8   am
     4     8     9    2
     5     8    12    1
     6    12    13    1
     7    13    14   ar
     8    14    15   ar
     9    15    16   ar
    10    16    19    1
    11    19    20    1
    12    19    21    2
    13    19    22    2
    14    16    17   ar
    15    17    18   ar
    16     7     1    1
    17     1     2    1
    18     2     3    1
    19     3     4    1
    20     4    23    1
    21    23    24    1
    22    24    25    1
    23    25    26    1
    24    26    27   ar
    25    27    28   ar
    26    28    29   ar
    27    29    30   ar
    28    30    31   ar
    29    25    32    1
    30    32    33    1
    31    33    34    1
    32    34    35    1
    33    35    38    1
    34    38    39    1
    35    38    40    2
    36    38    41    2
    37    35    36    1
    38    36    37    1
    39     4     5    1
    40     5     6    1
    41    18    13   ar
    42     6     1    1
    43    31    26   ar
    44    37    32    1
@<TRIPOS>MOLECULE
*****
 41 44 0 0 0
SMALL
GASTEIGER

@<TRIPOS>ATOM
      1 C         142.5539  140.3844  166.7498 C.3     1  UNL1        0.0781
      2 C         142.5246  138.9341  166.3681 C.3     1  UNL1        0.0372
      3 C         143.0787  138.4954  165.0451 C.3     1  UNL1        0.0738
      4 N         143.6623  139.5069  164.1038 N.3     1  UNL1       -0.2725
      5 C         143.6917  140.9573  164.4854 C.3     1  UNL1        0.0738
      6 C         143.1375  141.3961  165.8085 C.3     1  UNL1        0.0372
      7 N         141.9998  140.8231  168.0729 N.am    1  UNL1       -0.2808
      8 C         140.5289  141.0765  168.2231 C.2     1  UNL1        0.2300
      9 O         139.9748  141.5152  169.5461 O.2     1  UNL1       -0.2745
     10 C         143.5503  142.3443  169.4983 C.3     1  UNL1        0.0233
     11 C         142.9164  141.0085  169.2456 C.3     1  UNL1        0.0934
     12 C         139.6123  140.8911  167.0503 C.3     1  UNL1        0.1116
     13 C         139.6790  141.8385  165.8892 C.ar    1  UNL1       -0.0130
     14 C         139.5250  141.3214  164.4896 C.ar    1  UNL1       -0.0025
     15 C         139.5917  142.2687  163.3285 C.ar    1  UNL1        0.0180
     16 C         139.8124  143.7331  163.5671 C.ar    1  UNL1        0.1057
     17 C         139.9664  144.2502  164.9667 C.ar    1  UNL1        0.0180
     18 C         139.8997  143.3028  166.1277 C.ar    1  UNL1       -0.0025
     19 S         139.8791  144.6804  162.4059 S.O2    1  UNL1        0.0104
     20 C         139.9458  145.6277  161.2448 C.3     1  UNL1        0.1816
     21 O         141.3774  144.6195  162.4423 O.2     1  UNL1       -0.1686
     22 O         138.3808  144.7414  162.3695 O.2     1  UNL1       -0.1686
     23 C         144.2164  139.0682  162.7807 C.3     1  UNL1        0.0738
     24 C         143.5213  137.9964  161.9947 C.3     1  UNL1        0.0378
     25 C         142.4986  138.3674  160.9620 C.3     1  UNL1        0.0815
     26 C         141.0544  138.4919  161.3476 C.ar    1  UNL1       -0.0077
     27 C         140.5369  137.7740  162.5588 C.ar    1  UNL1       -0.0030
     28 C         139.0927  137.8985  162.9445 C.ar    1  UNL1       -0.0003
     29 C         138.1659  138.7409  162.1189 C.ar    1  UNL1       -0.0000
     30 C         138.6833  139.4587  160.9077 C.ar    1  UNL1       -0.0003
     31 C         140.1276  139.3342  160.5221 C.ar    1  UNL1       -0.0030
     32 N         142.9201  138.6139  159.5437 N.3     1  UNL1       -0.2678
     33 C         143.6581  139.8704  159.1882 C.3     1  UNL1        0.0917
     34 C         144.0796  140.1169  157.7699 C.3     1  UNL1        0.1128
     35 N         143.7630  139.1068  156.7071 N.3     1  UNL1       -0.1565
     36 C         143.0250  137.8503  157.0626 C.3     1  UNL1        0.1128
     37 C         142.6035  137.6038  158.4809 C.3     1  UNL1        0.0917
     38 S         144.1845  139.3533  155.2887 S.O2    1  UNL1        0.0457
     39 C         144.6059  139.5998  153.8704 C.3     1  UNL1        0.1960
     40 O         145.2302  138.2852  155.4138 O.2     1  UNL1       -0.1572
     41 O         143.1389  140.4214  155.1637 O.2     1  UNL1       -0.1572
@<TRIPOS>BOND
     1    10    11    1
     2    11     7    1
     3     7     8   am
     4     8     9    2
     5     8    12    1
     6    12    13    1
     7    13    14   ar
     8    14    15   ar
     9    15    16   ar
    10    16    19    1
    11    19    20    1
    12    19    21    2
    13    19    22    2
    14    16    17   ar
    15    17    18   ar
    16     7     1    1
    17     1     2    1
    18     2     3    1
    19     3     4    1
    20     4    23    1
    21    23    24    1
    22    24    25    1
    23    25    26    1
    24    26    27   ar
    25    27    28   ar
    26    28    29   ar
    27    29    30   ar
    28    30    31   ar
    29    25    32    1
    30    32    33    1
    31    33    34    1
    32    34    35    1
    33    35    38    1
    34    38    39    1
    35    38    40    2
    36    38    41    2
    37    35    36    1
    38    36    37    1
    39     4     5    1
    40     5     6    1
    41    18    13   ar
    42     6     1    1
    43    31    26   ar
    44    37    32    1
@<TRIPOS>MOLECULE
*****
 41 44 0 0 0
SMALL
GASTEIGER

@<TRIPOS>ATOM
      1 C         142.6685  139.2509  159.7015 C.3     1  UNL1        0.0781
      2 C         143.0637  140.6375  159.2877 C.3     1  UNL1        0.0372
      3 C         143.8661  141.4978  160.2183 C.3     1  UNL1        0.0738
      4 N         144.2734  140.9716  161.5626 N.3     1  UNL1       -0.2725
      5 C         143.8782  139.5849  161.9764 C.3     1  UNL1        0.0738
      6 C         143.0758  138.7246  161.0458 C.3     1  UNL1        0.0372
      7 N         141.8660  138.3906  158.7710 N.am    1  UNL1       -0.2808
      8 C         140.3936  138.6289  158.6114 C.2     1  UNL1        0.2300
      9 O         139.5911  137.7685  157.6809 O.2     1  UNL1       -0.2745
     10 C         142.9739  137.5283  156.5850 C.3     1  UNL1        0.0233
     11 C         142.5359  137.2921  158.0000 C.3     1  UNL1        0.0934
     12 C         139.7238  139.7274  159.3825 C.3     1  UNL1        0.1116
     13 C         139.4173  139.5423  160.8392 C.ar    1  UNL1       -0.0130
     14 C         139.3888  140.7289  161.7563 C.ar    1  UNL1       -0.0025
     15 C         139.0824  140.5437  163.2129 C.ar    1  UNL1        0.0180
     16 C         138.8045  139.1720  163.7524 C.ar    1  UNL1        0.1057
     17 C         138.8331  137.9854  162.8353 C.ar    1  UNL1        0.0180
     18 C         139.1395  138.1705  161.3787 C.ar    1  UNL1       -0.0025
     19 S         138.4981  138.9869  165.2091 S.O2    1  UNL1        0.0104
     20 C         138.1917  138.8018  166.6657 C.3     1  UNL1        0.1816
     21 O         138.2508  140.4601  165.3442 O.2     1  UNL1       -0.1686
     22 O         138.7455  137.5136  165.0740 O.2     1  UNL1       -0.1686
     23 C         145.0759  141.8319  162.4931 C.3     1  UNL1        0.0738
     24 C         144.4915  143.1053  163.0286 C.3     1  UNL1        0.0378
     25 C         143.1577  143.0883  163.7146 C.3     1  UNL1        0.0815
     26 C         142.0106  143.8681  163.1436 C.ar    1  UNL1       -0.0077
     27 C         142.0759  144.3738  161.7328 C.ar    1  UNL1       -0.0030
     28 C         140.9288  145.1536  161.1618 C.ar    1  UNL1       -0.0003
     29 C         139.7165  145.4279  162.0015 C.ar    1  UNL1       -0.0000
     30 C         139.6512  144.9223  163.4122 C.ar    1  UNL1       -0.0003
     31 C         140.7983  144.1424  163.9832 C.ar    1  UNL1       -0.0030
     32 N         142.9709  142.2913  164.9715 N.3     1  UNL1       -0.2678
     33 C         143.4395  142.8424  166.2856 C.3     1  UNL1        0.0917
     34 C         143.2526  142.0454  167.5426 C.3     1  UNL1        0.1128
     35 N         142.5972  140.6974  167.4854 N.3     1  UNL1       -0.1565
     36 C         142.1286  140.1463  166.1714 C.3     1  UNL1        0.1128
     37 C         142.3154  140.9433  164.9144 C.3     1  UNL1        0.0917
     38 S         142.4103  139.9004  168.7424 S.O2    1  UNL1        0.0457
     39 C         142.2235  139.1035  169.9994 C.3     1  UNL1        0.1960
     40 O         143.1921  138.7699  168.1419 O.2     1  UNL1       -0.1572
     41 O         141.6286  141.0309  169.3430 O.2     1  UNL1       -0.1572
@<TRIPOS>BOND
     1    10    11    1
     2    11     7    1
     3     7     8   am
     4     8     9    2
     5     8    12    1
     6    12    13    1
     7    13    14   ar
     8    14    15   ar
     9    15    16   ar
    10    16    19    1
    11    19    20    1
    12    19    21    2
    13    19    22    2
    14    16    17   ar
    15    17    18   ar
    16     7     1    1
    17     1     2    1
    18     2     3    1
    19     3     4    1
    20     4    23    1
    21    23    24    1
    22    24    25    1
    23    25    26    1
    24    26    27   ar
    25    27    28   ar
    26    28    29   ar
    27    29    30   ar
    28    30    31   ar
    29    25    32    1
    30    32    33    1
    31    33    34    1
    32    34    35    1
    33    35    38    1
    34    38    39    1
    35    38    40    2
    36    38    41    2
    37    35    36    1
    38    36    37    1
    39     4     5    1
    40     5     6    1
    41    18    13   ar
    42     6     1    1
    43    31    26   ar
    44    37    32    1
@<TRIPOS>MOLECULE
*****
 41 44 0 0 0
SMALL
GASTEIGER

@<TRIPOS>ATOM
      1 C         141.1367  138.5520  160.5120 C.3     1  UNL1        0.0781
      2 C         141.7679  137.6916  161.5661 C.3     1  UNL1        0.0372
      3 C         141.0422  137.4270  162.8519 C.3     1  UNL1        0.0738
      4 N         139.6853  138.0228  163.0836 N.3     1  UNL1       -0.2725
      5 C         139.0540  138.8833  162.0295 C.3     1  UNL1        0.0738
      6 C         139.7797  139.1479  160.7436 C.3     1  UNL1        0.0372
      7 N         141.8624  138.8166  159.2261 N.am    1  UNL1       -0.2808
      8 C         143.3343  139.1055  159.2414 C.2     1  UNL1        0.2300
      9 O         144.0600  139.3701  157.9556 O.2     1  UNL1       -0.2745
     10 C         140.8071  137.4828  157.2622 C.3     1  UNL1        0.0233
     11 C         141.1163  138.7923  157.9251 C.3     1  UNL1        0.0934
     12 C         144.0804  139.1298  160.5424 C.3     1  UNL1        0.1116
     13 C         144.0816  140.3720  161.3832 C.ar    1  UNL1       -0.0130
     14 C         144.0205  141.7205  160.7292 C.ar    1  UNL1       -0.0025
     15 C         144.0217  142.9626  161.5700 C.ar    1  UNL1        0.0180
     16 C         144.0841  142.8563  163.0649 C.ar    1  UNL1        0.1057
     17 C         144.1452  141.5079  163.7190 C.ar    1  UNL1        0.0180
     18 C         144.1440  140.2657  162.8782 C.ar    1  UNL1       -0.0025
     19 S         144.0853  144.0986  163.9058 S.O2    1  UNL1        0.0104
     20 C         144.0865  145.3407  164.7466 C.3     1  UNL1        0.1816
     21 O         143.8989  143.2644  165.1383 O.2     1  UNL1       -0.1686
     22 O         144.2717  144.9327  162.6732 O.2     1  UNL1       -0.1686
     23 C         138.9596  137.7582  164.3694 C.3     1  UNL1        0.0738
     24 C         138.4921  138.9045  165.2164 C.3     1  UNL1        0.0378
     25 C         139.4405  140.0116  165.5697 C.3     1  UNL1        0.0815
     26 C         140.3831  139.8514  166.7255 C.ar    1  UNL1       -0.0077
     27 C         141.8129  139.4696  166.4799 C.ar    1  UNL1       -0.0030
     28 C         142.7555  139.3095  167.6356 C.ar    1  UNL1       -0.0003
     29 C         142.2685  139.5311  169.0370 C.ar    1  UNL1       -0.0000
     30 C         140.8389  139.9129  169.2826 C.ar    1  UNL1       -0.0003
     31 C         139.8961  140.0731  168.1268 C.ar    1  UNL1       -0.0030
     32 N         139.4463  141.2789  164.7673 N.3     1  UNL1       -0.2678
     33 C         138.3066  142.2468  164.8858 C.3     1  UNL1        0.0917
     34 C         138.3124  143.5142  164.0833 C.3     1  UNL1        0.1128
     35 N         139.4580  143.8135  163.1624 N.3     1  UNL1       -0.1565
     36 C         140.5977  142.8455  163.0439 C.3     1  UNL1        0.1128
     37 C         140.5919  141.5783  163.8464 C.3     1  UNL1        0.0917
     38 S         139.4638  145.0808  162.3599 S.O2    1  UNL1        0.0457
     39 C         139.4696  146.3481  161.5575 C.3     1  UNL1        0.1960
     40 O         140.9634  145.0935  162.3908 O.2     1  UNL1       -0.1572
     41 O         137.9642  145.0681  162.3291 O.2     1  UNL1       -0.1572
@<TRIPOS>BOND
     1    10    11    1
     2    11     7    1
     3     7     8   am
     4     8     9    2
     5     8    12    1
     6    12    13    1
     7    13    14   ar
     8    14    15   ar
     9    15    16   ar
    10    16    19    1
    11    19    20    1
    12    19    21    2
    13    19    22    2
    14    16    17   ar
    15    17    18   ar
    16     7     1    1
    17     1     2    1
    18     2     3    1
    19     3     4    1
    20     4    23    1
    21    23    24    1
    22    24    25    1
    23    25    26    1
    24    26    27   ar
    25    27    28   ar
    26    28    29   ar
    27    29    30   ar
    28    30    31   ar
    29    25    32    1
    30    32    33    1
    31    33    34    1
    32    34    35    1
    33    35    38    1
    34    38    39    1
    35    38    40    2
    36    38    41    2
    37    35    36    1
    38    36    37    1
    39     4     5    1
    40     5     6    1
    41    18    13   ar
    42     6     1    1
    43    31    26   ar
    44    37    32    1
@<TRIPOS>MOLECULE
*****
 41 44 0 0 0
SMALL
GASTEIGER

@<TRIPOS>ATOM
      1 C         141.2141  139.8730  166.2012 C.3     1  UNL1        0.0781
      2 C         141.8868  138.7316  165.4979 C.3     1  UNL1        0.0372
      3 C         143.2299  138.9304  164.8602 C.3     1  UNL1        0.0738
      4 N         143.9003  140.2706  164.9259 N.3     1  UNL1       -0.2725
      5 C         143.2276  141.4121  165.6292 C.3     1  UNL1        0.0738
      6 C         141.8845  141.2133  166.2669 C.3     1  UNL1        0.0372
      7 N         139.8710  139.6742  166.8388 N.am    1  UNL1       -0.2808
      8 C         138.8025  138.9104  166.1143 C.2     1  UNL1        0.2300
      9 O         137.4594  138.7116  166.7520 O.2     1  UNL1       -0.2745
     10 C         140.5315  139.9463  169.3367 C.3     1  UNL1        0.0233
     11 C         139.5965  140.2391  168.2009 C.3     1  UNL1        0.0934
     12 C         139.0770  138.3454  164.7522 C.3     1  UNL1        0.1116
     13 C         138.9587  139.2204  163.5395 C.ar    1  UNL1       -0.0130
     14 C         139.8516  138.9877  162.3568 C.ar    1  UNL1       -0.0025
     15 C         139.7332  139.8627  161.1442 C.ar    1  UNL1        0.0180
     16 C         138.7221  140.9702  161.1143 C.ar    1  UNL1        0.1057
     17 C         137.8293  141.2029  162.2970 C.ar    1  UNL1        0.0180
     18 C         137.9476  140.3279  163.5096 C.ar    1  UNL1       -0.0025
     19 S         138.6038  141.8452  159.9016 S.O2    1  UNL1        0.0104
     20 C         138.4855  142.7200  158.6890 C.3     1  UNL1        0.1816
     21 O         139.0376  140.7011  159.0339 O.2     1  UNL1       -0.1686
     22 O         138.1700  142.9892  160.7693 O.2     1  UNL1       -0.1686
     23 C         145.2434  140.4694  164.2882 C.3     1  UNL1        0.0738
     24 C         145.3782  141.3524  163.0832 C.3     1  UNL1        0.0378
     25 C         144.1752  141.6634  162.2429 C.3     1  UNL1        0.0815
     26 C         143.2529  142.7787  162.6372 C.ar    1  UNL1       -0.0077
     27 C         141.7681  142.6013  162.5189 C.ar    1  UNL1       -0.0030
     28 C         140.8457  143.7165  162.9132 C.ar    1  UNL1       -0.0003
     29 C         141.4082  145.0092  163.4259 C.ar    1  UNL1       -0.0000
     30 C         142.8929  145.1865  163.5443 C.ar    1  UNL1       -0.0003
     31 C         143.8153  144.0713  163.1499 C.ar    1  UNL1       -0.0030
     32 N         143.8945  140.8592  161.0083 N.3     1  UNL1       -0.2678
     33 C         143.9998  141.4997  159.6560 C.3     1  UNL1        0.0917
     34 C         143.7191  140.6953  158.4213 C.3     1  UNL1        0.1128
     35 N         143.3332  139.2507  158.5389 N.3     1  UNL1       -0.1565
     36 C         143.2280  138.6102  159.8912 C.3     1  UNL1        0.1128
     37 C         143.5086  139.4144  161.1259 C.3     1  UNL1        0.0917
     38 S         143.0525  138.4463  157.3043 S.O2    1  UNL1        0.0457
     39 C         142.7719  137.6421  156.0696 C.3     1  UNL1        0.1960
     40 O         142.9745  137.1994  158.1343 O.2     1  UNL1       -0.1572
     41 O         143.1305  139.6933  156.4743 O.2     1  UNL1       -0.1572
@<TRIPOS>BOND
     1    10    11    1
     2    11     7    1
     3     7     8   am
     4     8     9    2
     5     8    12    1
     6    12    13    1
     7    13    14   ar
     8    14    15   ar
     9    15    16   ar
    10    16    19    1
    11    19    20    1
    12    19    21    2
    13    19    22    2
    14    16    17   ar
    15    17    18   ar
    16     7     1    1
    17     1     2    1
    18     2     3    1
    19     3     4    1
    20     4    23    1
    21    23    24    1
    22    24    25    1
    23    25    26    1
    24    26    27   ar
    25    27    28   ar
    26    28    29   ar
    27    29    30   ar
    28    30    31   ar
    29    25    32    1
    30    32    33    1
    31    33    34    1
    32    34    35    1
    33    35    38    1
    34    38    39    1
    35    38    40    2
    36    38    41    2
    37    35    36    1
    38    36    37    1
    39     4     5    1
    40     5     6    1
    41    18    13   ar
    42     6     1    1
    43    31    26   ar
    44    37    32    1
