@<TRIPOS>MOLECULE
*****
 35 39 0 0 0
SMALL
GASTEIGER

@<TRIPOS>ATOM
      1 N         142.7420  144.3366  163.1893 N.3     1  UNL1       -0.2687
      2 C         142.2362  144.2819  161.7782 C.3     1  UNL1        0.0737
      3 C         140.7831  144.5204  161.4926 C.3     1  UNL1        0.0359
      4 C         139.8359  144.8135  162.6181 C.3     1  UNL1        0.0901
      5 C         140.3417  144.8682  164.0292 C.3     1  UNL1        0.1911
      6 F         139.3944  145.1614  165.1547 F       1  UNL1       -0.2343
      7 C         141.7948  144.6297  164.3148 C.3     1  UNL1        0.1092
      8 N         138.3827  145.0520  162.3325 N.3     1  UNL1       -0.2913
      9 H         138.2752  145.0349  161.3184 H       1  UNL1        0.1236
     10 C         137.3460  144.1244  162.8936 C.3     1  UNL1        0.1153
     11 C         137.6426  142.6599  163.0254 C.ar    1  UNL1        0.0782
     12 C         137.8902  142.0638  164.3794 C.ar    1  UNL1        0.0562
     13 C         138.1868  140.5993  164.5112 C.ar    1  UNL1        0.1752
     14 C         138.2358  139.7310  163.2890 C.ar    1  UNL1        0.1914
     15 C         137.9881  140.3272  161.9350 C.ar    1  UNL1        0.1384
     16 N         137.6915  141.7917  161.8033 N.ar    1  UNL1       -0.2434
     17 O         138.5323  138.2665  163.4208 O.3     1  UNL1       -0.4668
     18 C         138.7800  137.6704  164.7748 C.3     1  UNL1        0.2527
     19 C         138.7310  138.5386  165.9970 C.3     1  UNL1        0.2526
     20 O         138.4345  140.0031  165.8652 O.3     1  UNL1       -0.4683
     21 C         144.1952  144.0981  163.4748 C.3     1  UNL1        0.0970
     22 C         144.6065  143.3947  164.7343 C.3     1  UNL1        0.1263
     23 C         141.6563  141.8592  167.7656 C.ar    1  UNL1        0.0699
     24 C         141.4281  140.3837  167.9094 C.ar    1  UNL1        0.0104
     25 C         142.1832  139.4200  167.0427 C.ar    1  UNL1        0.0021
     26 C         143.1666  139.9318  166.0323 C.ar    1  UNL1        0.0161
     27 C         143.9217  138.9681  165.1657 C.ar    1  UNL1        0.0063
     28 C         144.9050  139.4799  164.1552 C.ar    1  UNL1        0.0608
     29 C         145.1333  140.9555  164.0114 C.ar    1  UNL1        0.2610
     30 O         146.1167  141.4673  163.0010 O.2     1  UNL1       -0.2670
     31 N         144.3782  141.9192  164.8781 N.ar    1  UNL1       -0.2941
     32 C         143.3948  141.4073  165.8885 C.ar    1  UNL1        0.0631
     33 C         142.6397  142.3710  166.7552 C.ar    1  UNL1        0.0275
     34 N         140.1461  143.7866  169.4989 N.1     1  UNL1       -0.1908
     35 C         140.9012  142.8229  168.6322 C.1     1  UNL1        0.1005
@<TRIPOS>BOND
     1    34    35    3
     2    35    23    1
     3    23    24   ar
     4    24    25   ar
     5    25    26   ar
     6    26    27   ar
     7    27    28   ar
     8    28    29   ar
     9    29    30    2
    10    29    31   ar
    11    31    22    1
    12    22    21    1
    13    21     1    1
    14     1     2    1
    15     2     3    1
    16     3     4    1
    17     4     8    1
    18     8    10    1
    19    10    11    1
    20    11    12   ar
    21    12    13   ar
    22    13    14   ar
    23    14    15   ar
    24    15    16   ar
    25    14    17    1
    26    17    18    1
    27    18    19    1
    28    19    20    1
    29     4     5    1
    30     5     6    1
    31     5     7    1
    32    31    32   ar
    33    32    33   ar
    34    33    23   ar
    35    32    26   ar
    36     7     1    1
    37    16    11   ar
    38    20    13    1
    39     8     9    1
@<TRIPOS>MOLECULE
*****
 35 39 0 0 0
SMALL
GASTEIGER

@<TRIPOS>ATOM
      1 N         138.1106  141.2794  163.8978 N.3     1  UNL1       -0.2687
      2 C         137.9679  141.5157  162.4234 C.3     1  UNL1        0.0737
      3 C         138.1493  142.8955  161.8639 C.3     1  UNL1        0.0359
      4 C         138.4735  144.0391  162.7788 C.3     1  UNL1        0.0901
      5 C         138.6162  143.8029  164.2532 C.3     1  UNL1        0.1911
      6 F         138.9403  144.9466  165.1681 F       1  UNL1       -0.2343
      7 C         138.4348  142.4230  164.8127 C.3     1  UNL1        0.1092
      8 N         138.6549  145.4191  162.2193 N.3     1  UNL1       -0.2913
      9 H         138.2022  146.0621  162.8690 H       1  UNL1        0.1236
     10 C         140.0348  145.9529  161.9726 C.3     1  UNL1        0.1153
     11 C         141.2031  145.0138  161.9152 C.ar    1  UNL1        0.0782
     12 C         141.9911  144.7201  163.1573 C.ar    1  UNL1        0.0562
     13 C         143.1593  143.7811  163.0999 C.ar    1  UNL1        0.1752
     14 C         143.5396  143.1356  161.8003 C.ar    1  UNL1        0.1914
     15 C         142.7516  143.4293  160.5582 C.ar    1  UNL1        0.1384
     16 N         141.5833  144.3684  160.6157 N.ar    1  UNL1       -0.2434
     17 O         144.7079  142.1966  161.7428 O.3     1  UNL1       -0.4668
     18 C         145.4958  141.9029  162.9849 C.3     1  UNL1        0.2527
     19 C         145.1156  142.5483  164.2845 C.3     1  UNL1        0.2526
     20 O         143.9473  143.4874  164.3420 O.3     1  UNL1       -0.4683
     21 C         137.9292  139.8995  164.4573 C.3     1  UNL1        0.0970
     22 C         138.4644  139.5657  165.8182 C.3     1  UNL1        0.1263
     23 C         140.6636  141.4803  169.2457 C.ar    1  UNL1        0.0699
     24 C         142.1296  141.2239  169.4329 C.ar    1  UNL1        0.0104
     25 C         142.8625  140.3293  168.4777 C.ar    1  UNL1        0.0021
     26 C         142.1294  139.6910  167.3352 C.ar    1  UNL1        0.0161
     27 C         142.8624  138.7964  166.3800 C.ar    1  UNL1        0.0063
     28 C         142.1293  138.1582  165.2376 C.ar    1  UNL1        0.0608
     29 C         140.6633  138.4146  165.0503 C.ar    1  UNL1        0.2610
     30 O         139.9302  137.7764  163.9078 O.2     1  UNL1       -0.2670
     31 N         139.9303  139.3092  166.0055 N.ar    1  UNL1       -0.2941
     32 C         140.6635  139.9475  167.1480 C.ar    1  UNL1        0.0631
     33 C         139.9305  140.8421  168.1032 C.ar    1  UNL1        0.0275
     34 N         139.1977  143.2696  171.1561 N.1     1  UNL1       -0.1908
     35 C         139.9307  142.3750  170.2009 C.1     1  UNL1        0.1005
@<TRIPOS>BOND
     1    34    35    3
     2    35    23    1
     3    23    24   ar
     4    24    25   ar
     5    25    26   ar
     6    26    27   ar
     7    27    28   ar
     8    28    29   ar
     9    29    30    2
    10    29    31   ar
    11    31    22    1
    12    22    21    1
    13    21     1    1
    14     1     2    1
    15     2     3    1
    16     3     4    1
    17     4     8    1
    18     8    10    1
    19    10    11    1
    20    11    12   ar
    21    12    13   ar
    22    13    14   ar
    23    14    15   ar
    24    15    16   ar
    25    14    17    1
    26    17    18    1
    27    18    19    1
    28    19    20    1
    29     4     5    1
    30     5     6    1
    31     5     7    1
    32    31    32   ar
    33    32    33   ar
    34    33    23   ar
    35    32    26   ar
    36     7     1    1
    37    16    11   ar
    38    20    13    1
    39     8     9    1
@<TRIPOS>MOLECULE
*****
 35 39 0 0 0
SMALL
GASTEIGER

@<TRIPOS>ATOM
      1 N         137.8502  142.9566  162.9925 N.3     1  UNL1       -0.2687
      2 C         137.6779  141.8158  163.9511 C.3     1  UNL1        0.0737
      3 C         137.6913  140.4034  163.4462 C.3     1  UNL1        0.0359
      4 C         137.8771  140.1319  161.9827 C.3     1  UNL1        0.0901
      5 C         138.0494  141.2727  161.0242 C.3     1  UNL1        0.1911
      6 F         138.2351  141.0011  159.5607 F       1  UNL1       -0.2343
      7 C         138.0359  142.6851  161.5291 C.3     1  UNL1        0.1092
      8 N         137.8906  138.7194  161.4778 N.3     1  UNL1       -0.2913
      9 H         137.3121  138.7015  160.6379 H       1  UNL1        0.1236
     10 C         139.1913  138.0626  161.1219 C.3     1  UNL1        0.1153
     11 C         140.3939  138.2571  161.9970 C.ar    1  UNL1        0.0782
     12 C         141.4548  139.2425  161.6056 C.ar    1  UNL1        0.0562
     13 C         142.6574  139.4370  162.4807 C.ar    1  UNL1        0.1752
     14 C         142.7991  138.6460  163.7473 C.ar    1  UNL1        0.1914
     15 C         141.7381  137.6605  164.1388 C.ar    1  UNL1        0.1384
     16 N         140.5355  137.4661  163.2636 N.ar    1  UNL1       -0.2434
     17 O         144.0017  138.8405  164.6225 O.3     1  UNL1       -0.4668
     18 C         145.0626  139.8259  164.2310 C.3     1  UNL1        0.2527
     19 C         144.9210  140.6169  162.9645 C.3     1  UNL1        0.2526
     20 O         143.7184  140.4225  162.0893 O.3     1  UNL1       -0.4683
     21 C         137.8367  144.3691  163.4975 C.3     1  UNL1        0.0970
     22 C         138.8679  144.8211  164.4886 C.3     1  UNL1        0.1263
     23 C         140.9170  141.9098  167.2410 C.ar    1  UNL1        0.0699
     24 C         142.3618  141.5672  167.0291 C.ar    1  UNL1        0.0104
     25 C         143.1237  142.1950  165.8997 C.ar    1  UNL1        0.0021
     26 C         142.4407  143.1654  164.9822 C.ar    1  UNL1        0.0161
     27 C         143.2025  143.7931  163.8529 C.ar    1  UNL1        0.0063
     28 C         142.5195  144.7635  162.9354 C.ar    1  UNL1        0.0608
     29 C         141.0746  145.1062  163.1473 C.ar    1  UNL1        0.2610
     30 O         140.3916  146.0766  162.2298 O.2     1  UNL1       -0.2670
     31 N         140.3127  144.4784  164.2767 N.ar    1  UNL1       -0.2941
     32 C         140.9958  143.5080  165.1942 C.ar    1  UNL1        0.0631
     33 C         140.2340  142.8802  166.3235 C.ar    1  UNL1        0.0275
     34 N         139.3933  140.6543  169.4998 N.1     1  UNL1       -0.1908
     35 C         140.1551  141.2820  168.3704 C.1     1  UNL1        0.1005
@<TRIPOS>BOND
     1    34    35    3
     2    35    23    1
     3    23    24   ar
     4    24    25   ar
     5    25    26   ar
     6    26    27   ar
     7    27    28   ar
     8    28    29   ar
     9    29    30    2
    10    29    31   ar
    11    31    22    1
    12    22    21    1
    13    21     1    1
    14     1     2    1
    15     2     3    1
    16     3     4    1
    17     4     8    1
    18     8    10    1
    19    10    11    1
    20    11    12   ar
    21    12    13   ar
    22    13    14   ar
    23    14    15   ar
    24    15    16   ar
    25    14    17    1
    26    17    18    1
    27    18    19    1
    28    19    20    1
    29     4     5    1
    30     5     6    1
    31     5     7    1
    32    31    32   ar
    33    32    33   ar
    34    33    23   ar
    35    32    26   ar
    36     7     1    1
    37    16    11   ar
    38    20    13    1
    39     8     9    1
@<TRIPOS>MOLECULE
*****
 35 39 0 0 0
SMALL
GASTEIGER

@<TRIPOS>ATOM
      1 N         144.5616  140.2883  163.4613 N.3     1  UNL1       -0.2687
      2 C         144.1545  140.1489  162.0243 C.3     1  UNL1        0.0737
      3 C         143.1025  139.1527  161.6361 C.3     1  UNL1        0.0359
      4 C         142.4577  138.2958  162.6848 C.3     1  UNL1        0.0901
      5 C         142.8648  138.4351  164.1218 C.3     1  UNL1        0.1911
      6 F         142.2200  137.5781  165.1705 F       1  UNL1       -0.2343
      7 C         143.9168  139.4314  164.5100 C.3     1  UNL1        0.1092
      8 N         141.4057  137.2994  162.2966 N.3     1  UNL1       -0.2913
      9 H         141.2791  136.6783  163.0958 H       1  UNL1        0.1236
     10 C         140.0396  137.7698  161.8933 C.3     1  UNL1        0.1153
     11 C         139.4201  138.9509  162.5797 C.ar    1  UNL1        0.0782
     12 C         139.2967  140.2591  161.8562 C.ar    1  UNL1        0.0562
     13 C         138.6772  141.4402  162.5426 C.ar    1  UNL1        0.1752
     14 C         138.1811  141.3131  163.9525 C.ar    1  UNL1        0.1914
     15 C         138.3045  140.0050  164.6760 C.ar    1  UNL1        0.1384
     16 N         138.9240  138.8238  163.9895 N.ar    1  UNL1       -0.2434
     17 O         137.5615  142.4942  164.6389 O.3     1  UNL1       -0.4668
     18 C         137.4381  143.8024  163.9154 C.3     1  UNL1        0.2527
     19 C         137.9342  143.9295  162.5056 C.3     1  UNL1        0.2526
     20 O         138.5537  142.7484  161.8191 O.3     1  UNL1       -0.4683
     21 C         145.6137  141.2846  163.8495 C.3     1  UNL1        0.0970
     22 C         145.2170  142.5881  164.4769 C.3     1  UNL1        0.1263
     23 C         142.3114  141.7655  167.8132 C.ar    1  UNL1        0.0699
     24 C         140.8947  142.2473  167.7097 C.ar    1  UNL1        0.0104
     25 C         140.4465  143.0034  166.4942 C.ar    1  UNL1        0.0021
     26 C         141.4150  143.2776  165.3821 C.ar    1  UNL1        0.0161
     27 C         140.9669  144.0336  164.1665 C.ar    1  UNL1        0.0063
     28 C         141.9354  144.3078  163.0545 C.ar    1  UNL1        0.0608
     29 C         143.3522  143.8259  163.1579 C.ar    1  UNL1        0.2610
     30 O         144.3207  144.1001  162.0458 O.2     1  UNL1       -0.2670
     31 N         143.8003  143.0699  164.3735 N.ar    1  UNL1       -0.2941
     32 C         142.8317  142.7957  165.4856 C.ar    1  UNL1        0.0631
     33 C         143.2799  142.0397  166.7011 C.ar    1  UNL1        0.0275
     34 N         143.2078  140.2535  170.2443 N.1     1  UNL1       -0.1908
     35 C         142.7596  141.0095  169.0287 C.1     1  UNL1        0.1005
@<TRIPOS>BOND
     1    34    35    3
     2    35    23    1
     3    23    24   ar
     4    24    25   ar
     5    25    26   ar
     6    26    27   ar
     7    27    28   ar
     8    28    29   ar
     9    29    30    2
    10    29    31   ar
    11    31    22    1
    12    22    21    1
    13    21     1    1
    14     1     2    1
    15     2     3    1
    16     3     4    1
    17     4     8    1
    18     8    10    1
    19    10    11    1
    20    11    12   ar
    21    12    13   ar
    22    13    14   ar
    23    14    15   ar
    24    15    16   ar
    25    14    17    1
    26    17    18    1
    27    18    19    1
    28    19    20    1
    29     4     5    1
    30     5     6    1
    31     5     7    1
    32    31    32   ar
    33    32    33   ar
    34    33    23   ar
    35    32    26   ar
    36     7     1    1
    37    16    11   ar
    38    20    13    1
    39     8     9    1
@<TRIPOS>MOLECULE
*****
 35 39 0 0 0
SMALL
GASTEIGER

@<TRIPOS>ATOM
      1 N         140.7620  144.6727  163.1803 N.3     1  UNL1       -0.2687
      2 C         141.0484  144.2332  161.7750 C.3     1  UNL1        0.0737
      3 C         142.4350  143.8109  161.3891 C.3     1  UNL1        0.0359
      4 C         143.5352  143.8280  162.4085 C.3     1  UNL1        0.0901
      5 C         143.2488  144.2675  163.8138 C.3     1  UNL1        0.1911
      6 F         144.3491  144.2846  164.8332 F       1  UNL1       -0.2343
      7 C         141.8622  144.6898  164.1997 C.3     1  UNL1        0.1092
      8 N         144.9219  143.4057  162.0226 N.3     1  UNL1       -0.2913
      9 H         145.5527  143.7870  162.7276 H       1  UNL1        0.1236
     10 C         145.2521  141.9486  161.8887 C.3     1  UNL1        0.1153
     11 C         144.5013  140.9321  162.6966 C.ar    1  UNL1        0.0782
     12 C         143.4100  140.1244  162.0588 C.ar    1  UNL1        0.0562
     13 C         142.6592  139.1079  162.8667 C.ar    1  UNL1        0.1752
     14 C         142.9997  138.8989  164.3126 C.ar    1  UNL1        0.1914
     15 C         144.0910  139.7065  164.9505 C.ar    1  UNL1        0.1384
     16 N         144.8418  140.7231  164.1424 N.ar    1  UNL1       -0.2434
     17 O         142.2489  137.8824  165.1206 O.3     1  UNL1       -0.4668
     18 C         141.1576  137.0747  164.4828 C.3     1  UNL1        0.2527
     19 C         140.8171  137.2837  163.0370 C.3     1  UNL1        0.2526
     20 O         141.5679  138.3003  162.2289 O.3     1  UNL1       -0.4683
     21 C         139.3753  145.0950  163.5661 C.3     1  UNL1        0.0970
     22 C         138.6245  144.3329  164.6175 C.3     1  UNL1        0.1263
     23 C         140.5648  142.0891  168.0014 C.ar    1  UNL1        0.0699
     24 C         140.5803  140.5892  167.9952 C.ar    1  UNL1        0.0104
     25 C         139.9490  139.8372  166.8612 C.ar    1  UNL1        0.0021
     26 C         139.3023  140.5852  165.7332 C.ar    1  UNL1        0.0161
     27 C         138.6711  139.8332  164.5992 C.ar    1  UNL1        0.0063
     28 C         138.0243  140.5811  163.4712 C.ar    1  UNL1        0.0608
     29 C         138.0088  142.0811  163.4773 C.ar    1  UNL1        0.2610
     30 O         137.3620  142.8290  162.3494 O.2     1  UNL1       -0.2670
     31 N         138.6400  142.8330  164.6114 N.ar    1  UNL1       -0.2941
     32 C         139.2868  142.0850  165.7394 C.ar    1  UNL1        0.0631
     33 C         139.9180  142.8370  166.8734 C.ar    1  UNL1        0.0275
     34 N         141.8272  143.5930  170.2695 N.1     1  UNL1       -0.1908
     35 C         141.1960  142.8410  169.1354 C.1     1  UNL1        0.1005
@<TRIPOS>BOND
     1    34    35    3
     2    35    23    1
     3    23    24   ar
     4    24    25   ar
     5    25    26   ar
     6    26    27   ar
     7    27    28   ar
     8    28    29   ar
     9    29    30    2
    10    29    31   ar
    11    31    22    1
    12    22    21    1
    13    21     1    1
    14     1     2    1
    15     2     3    1
    16     3     4    1
    17     4     8    1
    18     8    10    1
    19    10    11    1
    20    11    12   ar
    21    12    13   ar
    22    13    14   ar
    23    14    15   ar
    24    15    16   ar
    25    14    17    1
    26    17    18    1
    27    18    19    1
    28    19    20    1
    29     4     5    1
    30     5     6    1
    31     5     7    1
    32    31    32   ar
    33    32    33   ar
    34    33    23   ar
    35    32    26   ar
    36     7     1    1
    37    16    11   ar
    38    20    13    1
    39     8     9    1
@<TRIPOS>MOLECULE
*****
 35 39 0 0 0
SMALL
GASTEIGER

@<TRIPOS>ATOM
      1 N         138.9708  139.7504  161.1614 N.3     1  UNL1       -0.2687
      2 C         139.9904  140.0305  160.0975 C.3     1  UNL1        0.0737
      3 C         141.2653  139.2414  160.0543 C.3     1  UNL1        0.0359
      4 C         141.5207  138.1724  161.0749 C.3     1  UNL1        0.0901
      5 C         140.5011  137.8923  162.1389 C.3     1  UNL1        0.1911
      6 F         140.7564  136.8232  163.1596 F       1  UNL1       -0.2343
      7 C         139.2261  138.6813  162.1821 C.3     1  UNL1        0.1092
      8 N         142.7957  137.3833  161.0317 N.3     1  UNL1       -0.2913
      9 H         142.9137  137.0669  160.0692 H       1  UNL1        0.1236
     10 C         144.0890  138.0251  161.4382 C.3     1  UNL1        0.1153
     11 C         144.0804  139.2265  162.3363 C.ar    1  UNL1        0.0782
     12 C         144.1474  140.6042  161.7467 C.ar    1  UNL1        0.0562
     13 C         144.1388  141.8055  162.6447 C.ar    1  UNL1        0.1752
     14 C         144.0631  141.6293  164.1325 C.ar    1  UNL1        0.1914
     15 C         143.9961  140.2517  164.7221 C.ar    1  UNL1        0.1384
     16 N         144.0047  139.0503  163.8239 N.ar    1  UNL1       -0.2434
     17 O         144.0545  142.8307  165.0305 O.3     1  UNL1       -0.4668
     18 C         144.1215  144.2084  164.4409 C.3     1  UNL1        0.2527
     19 C         144.1972  144.3846  162.9533 C.3     1  UNL1        0.2526
     20 O         144.2059  143.1832  162.0551 O.3     1  UNL1       -0.4683
     21 C         137.6958  140.5395  161.2047 C.3     1  UNL1        0.0970
     22 C         137.3825  141.3937  162.3972 C.3     1  UNL1        0.1263
     23 C         138.4742  139.7502  166.4416 C.ar    1  UNL1        0.0699
     24 C         139.5870  140.3751  167.2296 C.ar    1  UNL1        0.0104
     25 C         140.3359  141.5479  166.6695 C.ar    1  UNL1        0.0021
     26 C         139.9721  142.0957  165.3214 C.ar    1  UNL1        0.0161
     27 C         140.7210  143.2685  164.7614 C.ar    1  UNL1        0.0063
     28 C         140.3572  143.8164  163.4133 C.ar    1  UNL1        0.0608
     29 C         139.2443  143.1914  162.6252 C.ar    1  UNL1        0.2610
     30 O         138.8804  143.7393  161.2771 O.2     1  UNL1       -0.2670
     31 N         138.4953  142.0186  163.1852 N.ar    1  UNL1       -0.2941
     32 C         138.8593  141.4708  164.5334 C.ar    1  UNL1        0.0631
     33 C         138.1103  140.2980  165.0935 C.ar    1  UNL1        0.0275
     34 N         136.9763  137.4047  167.5617 N.1     1  UNL1       -0.1908
     35 C         137.7252  138.5774  167.0017 C.1     1  UNL1        0.1005
@<TRIPOS>BOND
     1    34    35    3
     2    35    23    1
     3    23    24   ar
     4    24    25   ar
     5    25    26   ar
     6    26    27   ar
     7    27    28   ar
     8    28    29   ar
     9    29    30    2
    10    29    31   ar
    11    31    22    1
    12    22    21    1
    13    21     1    1
    14     1     2    1
    15     2     3    1
    16     3     4    1
    17     4     8    1
    18     8    10    1
    19    10    11    1
    20    11    12   ar
    21    12    13   ar
    22    13    14   ar
    23    14    15   ar
    24    15    16   ar
    25    14    17    1
    26    17    18    1
    27    18    19    1
    28    19    20    1
    29     4     5    1
    30     5     6    1
    31     5     7    1
    32    31    32   ar
    33    32    33   ar
    34    33    23   ar
    35    32    26   ar
    36     7     1    1
    37    16    11   ar
    38    20    13    1
    39     8     9    1
@<TRIPOS>MOLECULE
*****
 35 39 0 0 0
SMALL
GASTEIGER

@<TRIPOS>ATOM
      1 N         143.0468  138.8595  162.0630 N.3     1  UNL1       -0.2687
      2 C         142.8569  139.7933  160.9045 C.3     1  UNL1        0.0737
      3 C         143.5725  141.1112  160.8783 C.3     1  UNL1        0.0359
      4 C         144.4781  141.4955  162.0106 C.3     1  UNL1        0.0901
      5 C         144.6681  140.5618  163.1691 C.3     1  UNL1        0.1911
      6 F         145.5737  140.9461  164.3015 F       1  UNL1       -0.2343
      7 C         143.9524  139.2438  163.1953 C.3     1  UNL1        0.1092
      8 N         145.1938  142.8135  161.9845 N.3     1  UNL1       -0.2913
      9 H         145.4341  142.9989  161.0107 H       1  UNL1        0.1236
     10 C         144.5154  144.0458  162.5052 C.3     1  UNL1        0.1153
     11 C         143.0285  144.1952  162.3749 C.ar    1  UNL1        0.0782
     12 C         142.1563  144.1054  163.5919 C.ar    1  UNL1        0.0562
     13 C         140.6694  144.2547  163.4617 C.ar    1  UNL1        0.1752
     14 C         140.0548  144.4938  162.1144 C.ar    1  UNL1        0.1914
     15 C         140.9271  144.5836  160.8974 C.ar    1  UNL1        0.1384
     16 N         142.4140  144.4343  161.0277 N.ar    1  UNL1       -0.2434
     17 O         138.5680  144.6432  161.9842 O.3     1  UNL1       -0.4668
     18 C         137.6957  144.5534  163.2012 C.3     1  UNL1        0.2527
     19 C         138.3103  144.3143  164.5484 C.3     1  UNL1        0.2526
     20 O         139.7972  144.1649  164.6787 O.3     1  UNL1       -0.4683
     21 C         142.3311  137.5415  162.0891 C.3     1  UNL1        0.0970
     22 C         141.1805  137.3314  163.0282 C.3     1  UNL1        0.1263
     23 C         141.0655  139.7465  166.8235 C.ar    1  UNL1        0.0699
     24 C         140.0335  140.8211  166.9976 C.ar    1  UNL1        0.0104
     25 C         139.0400  141.0906  165.9067 C.ar    1  UNL1        0.0021
     26 C         139.0783  140.2856  164.6416 C.ar    1  UNL1        0.0161
     27 C         138.0848  140.5552  163.5507 C.ar    1  UNL1        0.0063
     28 C         138.1231  139.7502  162.2856 C.ar    1  UNL1        0.0608
     29 C         139.1551  138.6755  162.1114 C.ar    1  UNL1        0.2610
     30 O         139.1934  137.8705  160.8464 O.2     1  UNL1       -0.2670
     31 N         140.1486  138.4059  163.2024 N.ar    1  UNL1       -0.2941
     32 C         140.1102  139.2110  164.4675 C.ar    1  UNL1        0.0631
     33 C         141.1038  138.9415  165.5584 C.ar    1  UNL1        0.0275
     34 N         143.0526  139.2073  169.0054 N.1     1  UNL1       -0.1908
     35 C         142.0590  139.4769  167.9144 C.1     1  UNL1        0.1005
@<TRIPOS>BOND
     1    34    35    3
     2    35    23    1
     3    23    24   ar
     4    24    25   ar
     5    25    26   ar
     6    26    27   ar
     7    27    28   ar
     8    28    29   ar
     9    29    30    2
    10    29    31   ar
    11    31    22    1
    12    22    21    1
    13    21     1    1
    14     1     2    1
    15     2     3    1
    16     3     4    1
    17     4     8    1
    18     8    10    1
    19    10    11    1
    20    11    12   ar
    21    12    13   ar
    22    13    14   ar
    23    14    15   ar
    24    15    16   ar
    25    14    17    1
    26    17    18    1
    27    18    19    1
    28    19    20    1
    29     4     5    1
    30     5     6    1
    31     5     7    1
    32    31    32   ar
    33    32    33   ar
    34    33    23   ar
    35    32    26   ar
    36     7     1    1
    37    16    11   ar
    38    20    13    1
    39     8     9    1
@<TRIPOS>MOLECULE
*****
 35 39 0 0 0
SMALL
GASTEIGER

@<TRIPOS>ATOM
      1 N         141.8333  138.2397  164.0888 N.3     1  UNL1       -0.2687
      2 C         142.5227  138.9644  165.2066 C.3     1  UNL1        0.0737
      3 C         143.7870  139.7260  164.9394 C.3     1  UNL1        0.0359
      4 C         144.3619  139.7628  163.5545 C.3     1  UNL1        0.0901
      5 C         143.6725  139.0381  162.4367 C.3     1  UNL1        0.1911
      6 F         144.2476  139.0749  161.0518 F       1  UNL1       -0.2343
      7 C         142.4082  138.2765  162.7039 C.3     1  UNL1        0.1092
      8 N         145.6264  140.5244  163.2873 N.3     1  UNL1       -0.2913
      9 H         146.0133  140.1570  162.4180 H       1  UNL1        0.1236
     10 C         145.5872  142.0173  163.1471 C.3     1  UNL1        0.1153
     11 C         144.4872  142.6683  162.3621 C.ar    1  UNL1        0.0782
     12 C         143.5423  143.6163  163.0391 C.ar    1  UNL1        0.0562
     13 C         142.4423  144.2672  162.2541 C.ar    1  UNL1        0.1752
     14 C         142.2872  143.9702  160.7920 C.ar    1  UNL1        0.1914
     15 C         143.2322  143.0223  160.1149 C.ar    1  UNL1        0.1384
     16 N         144.3322  142.3713  160.9000 N.ar    1  UNL1       -0.2434
     17 O         141.1873  144.6212  160.0070 O.3     1  UNL1       -0.4668
     18 C         140.2423  145.5692  160.6841 C.3     1  UNL1        0.2527
     19 C         140.3974  145.8662  162.1461 C.3     1  UNL1        0.2526
     20 O         141.4974  145.2152  162.9312 O.3     1  UNL1       -0.4683
     21 C         140.5689  137.4781  164.3560 C.3     1  UNL1        0.0970
     22 C         139.3273  138.2087  164.7740 C.3     1  UNL1        0.1263
     23 C         139.9946  142.3574  166.3843 C.ar    1  UNL1        0.0699
     24 C         139.5268  143.5494  165.6031 C.ar    1  UNL1        0.0104
     25 C         138.8367  143.3585  164.2850 C.ar    1  UNL1        0.0021
     26 C         138.6143  141.9756  163.7483 C.ar    1  UNL1        0.0161
     27 C         137.9241  141.7847  162.4302 C.ar    1  UNL1        0.0063
     28 C         137.7017  140.4018  161.8934 C.ar    1  UNL1        0.0608
     29 C         138.1695  139.2098  162.6747 C.ar    1  UNL1        0.2610
     30 O         137.9471  137.8269  162.1379 O.2     1  UNL1       -0.2670
     31 N         138.8596  139.4007  163.9928 N.ar    1  UNL1       -0.2941
     32 C         139.0820  140.7837  164.5295 C.ar    1  UNL1        0.0631
     33 C         139.7722  140.9746  165.8476 C.ar    1  UNL1        0.0275
     34 N         141.3749  142.7393  169.0204 N.1     1  UNL1       -0.1908
     35 C         140.6847  142.5483  167.7024 C.1     1  UNL1        0.1005
@<TRIPOS>BOND
     1    34    35    3
     2    35    23    1
     3    23    24   ar
     4    24    25   ar
     5    25    26   ar
     6    26    27   ar
     7    27    28   ar
     8    28    29   ar
     9    29    30    2
    10    29    31   ar
    11    31    22    1
    12    22    21    1
    13    21     1    1
    14     1     2    1
    15     2     3    1
    16     3     4    1
    17     4     8    1
    18     8    10    1
    19    10    11    1
    20    11    12   ar
    21    12    13   ar
    22    13    14   ar
    23    14    15   ar
    24    15    16   ar
    25    14    17    1
    26    17    18    1
    27    18    19    1
    28    19    20    1
    29     4     5    1
    30     5     6    1
    31     5     7    1
    32    31    32   ar
    33    32    33   ar
    34    33    23   ar
    35    32    26   ar
    36     7     1    1
    37    16    11   ar
    38    20    13    1
    39     8     9    1
@<TRIPOS>MOLECULE
*****
 35 39 0 0 0
SMALL
GASTEIGER

@<TRIPOS>ATOM
      1 N         142.6809  138.4553  162.8092 N.3     1  UNL1       -0.2687
      2 C         142.0907  138.5842  161.4362 C.3     1  UNL1        0.0737
      3 C         140.6440  138.2604  161.2083 C.3     1  UNL1        0.0359
      4 C         139.7874  137.8078  162.3534 C.3     1  UNL1        0.0901
      5 C         140.3775  137.6788  163.7264 C.3     1  UNL1        0.1911
      6 F         139.5208  137.2261  164.8715 F       1  UNL1       -0.2343
      7 C         141.8243  138.0026  163.9543 C.3     1  UNL1        0.1092
      8 N         138.3405  137.4840  162.1255 N.3     1  UNL1       -0.2913
      9 H         137.9368  137.2801  163.0398 H       1  UNL1        0.1236
     10 C         137.4412  138.4895  161.4696 C.3     1  UNL1        0.1153
     11 C         137.7273  139.9553  161.6092 C.ar    1  UNL1        0.0782
     12 C         137.6001  140.6201  162.9478 C.ar    1  UNL1        0.0562
     13 C         137.8862  142.0859  163.0874 C.ar    1  UNL1        0.1752
     14 C         138.2996  142.8869  161.8884 C.ar    1  UNL1        0.1914
     15 C         138.4268  142.2221  160.5498 C.ar    1  UNL1        0.1384
     16 N         138.1407  140.7562  160.4103 N.ar    1  UNL1       -0.2434
     17 O         138.5857  144.3527  162.0280 O.3     1  UNL1       -0.4668
     18 C         138.4585  145.0176  163.3666 C.3     1  UNL1        0.2527
     19 C         138.0451  144.2166  164.5656 C.3     1  UNL1        0.2526
     20 O         137.7590  142.7507  164.4260 O.3     1  UNL1       -0.4683
     21 C         144.1278  138.7791  163.0371 C.3     1  UNL1        0.0970
     22 C         144.5096  140.0267  163.7771 C.3     1  UNL1        0.1263
     23 C         142.2834  140.5404  167.6540 C.ar    1  UNL1        0.0699
     24 C         141.2913  141.6549  167.8072 C.ar    1  UNL1        0.0104
     25 C         141.0412  142.5982  166.6680 C.ar    1  UNL1        0.0021
     26 C         141.7832  142.4269  165.3758 C.ar    1  UNL1        0.0161
     27 C         141.5331  143.3702  164.2366 C.ar    1  UNL1        0.0063
     28 C         142.2751  143.1990  162.9443 C.ar    1  UNL1        0.0608
     29 C         143.2673  142.0845  162.7911 C.ar    1  UNL1        0.2610
     30 O         144.0093  141.9132  161.4989 O.2     1  UNL1       -0.2670
     31 N         143.5174  141.1412  163.9303 N.ar    1  UNL1       -0.2941
     32 C         142.7753  141.3124  165.2226 C.ar    1  UNL1        0.0631
     33 C         143.0254  140.3691  166.3618 C.ar    1  UNL1        0.0275
     34 N         142.7836  138.6538  169.9323 N.1     1  UNL1       -0.1908
     35 C         142.5335  139.5971  168.7932 C.1     1  UNL1        0.1005
@<TRIPOS>BOND
     1    34    35    3
     2    35    23    1
     3    23    24   ar
     4    24    25   ar
     5    25    26   ar
     6    26    27   ar
     7    27    28   ar
     8    28    29   ar
     9    29    30    2
    10    29    31   ar
    11    31    22    1
    12    22    21    1
    13    21     1    1
    14     1     2    1
    15     2     3    1
    16     3     4    1
    17     4     8    1
    18     8    10    1
    19    10    11    1
    20    11    12   ar
    21    12    13   ar
    22    13    14   ar
    23    14    15   ar
    24    15    16   ar
    25    14    17    1
    26    17    18    1
    27    18    19    1
    28    19    20    1
    29     4     5    1
    30     5     6    1
    31     5     7    1
    32    31    32   ar
    33    32    33   ar
    34    33    23   ar
    35    32    26   ar
    36     7     1    1
    37    16    11   ar
    38    20    13    1
    39     8     9    1
