@<TRIPOS>MOLECULE
*****
 38 41 0 0 0
SMALL
GASTEIGER

@<TRIPOS>ATOM
      1 S         139.5280  143.2009  160.4313 S.O2    1  UNL1        0.0134
      2 O         138.1808  143.2773  160.4715 O.2     1  UNL1       -0.1683
      3 O         141.0133  143.0244  160.5447 O.2     1  UNL1       -0.1683
      4 C         139.7147  143.9429  159.1411 C.3     1  UNL1        0.1845
      5 C         139.0408  142.7463  158.5377 C.3     1  UNL1        0.0313
      6 C         138.9438  142.9665  157.0571 C.3     1  UNL1        0.0024
      7 C         139.5577  144.2993  156.7454 C.3     1  UNL1        0.0048
      8 C         140.1998  145.6456  156.5876 C.3     1  UNL1        0.0172
      9 C         140.3167  146.2659  155.2270 C.3     1  UNL1        0.0686
     10 N         139.7915  145.5398  154.0240 N.3     1  UNL1       -0.2975
     11 C         139.1495  144.1935  154.1818 C.3     1  UNL1        0.0686
     12 C         139.0325  143.5732  155.5425 C.3     1  UNL1        0.0172
     13 C         140.0342  144.9027  158.0334 C.3     1  UNL1        0.0314
     14 H         140.5786  145.4179  153.3869 H       1  UNL1        0.1232
     15 O         141.6173  145.4429  159.9412 O.2     1  UNL1       -0.2713
     16 C         140.3496  144.9844  160.0141 C.2     1  UNL1        0.2644
     17 N         139.5541  145.6324  161.1083 N.am    1  UNL1       -0.1956
     18 O         140.1891  146.6739  161.9813 O.3     1  UNL1       -0.2951
     19 H         138.6152  145.3742  161.2535 H       1  UNL1        0.1823
     20 H         141.1095  146.8088  161.7064 H       1  UNL1        0.2414
     21 C         139.3413  142.4589  161.7215 C.ar    1  UNL1        0.1063
     22 C         138.1180  142.7004  162.5552 C.ar    1  UNL1        0.0215
     23 C         137.9312  141.9584  163.8454 C.ar    1  UNL1        0.0388
     24 C         138.9678  140.9750  164.3018 C.ar    1  UNL1        0.1454
     25 C         140.1911  140.7335  163.4680 C.ar    1  UNL1        0.0388
     26 C         140.3778  141.4755  162.1778 C.ar    1  UNL1        0.0215
     27 O         138.7811  140.2330  165.5920 O.3     1  UNL1       -0.4535
     28 C         139.5524  140.6430  166.8115 C.ar    1  UNL1        0.1455
     29 C         139.3847  139.8850  168.0950 C.ar    1  UNL1        0.0406
     30 C         140.1559  140.2950  169.3144 C.ar    1  UNL1        0.0403
     31 C         141.0949  141.4630  169.2504 C.ar    1  UNL1        0.1470
     32 C         141.2626  142.2210  167.9669 C.ar    1  UNL1        0.0403
     33 C         140.4914  141.8110  166.7474 C.ar    1  UNL1        0.0406
     34 O         141.8661  141.8731  170.4697 O.3     1  UNL1       -0.4045
     35 C         143.2729  142.3755  170.3336 C.3     1  UNL1        0.5753
     36 F         144.6797  142.8781  170.1975 F       1  UNL1       -0.1328
     37 F         143.7434  140.9807  170.0459 F       1  UNL1       -0.1328
     38 F         142.8024  143.7705  170.6214 F       1  UNL1       -0.1328
@<TRIPOS>BOND
     1    15    16    2
     2    16    17   am
     3    17    18    1
     4    16     4    1
     5     4     1    1
     6     1     2    2
     7     1     3    2
     8     1    21    1
     9    21    22   ar
    10    22    23   ar
    11    23    24   ar
    12    24    27    1
    13    27    28    1
    14    28    29   ar
    15    29    30   ar
    16    30    31   ar
    17    31    34    1
    18    34    35    1
    19    35    36    1
    20    35    37    1
    21    35    38    1
    22    31    32   ar
    23    32    33   ar
    24    24    25   ar
    25    25    26   ar
    26     4     5    1
    27     5     6    1
    28     6     7    1
    29     7     8    1
    30     8     9    1
    31     9    10    1
    32    10    11    1
    33    11    12    1
    34     7    13    1
    35    13     4    1
    36    26    21   ar
    37    12     7    1
    38    33    28   ar
    39    17    19    1
    40    18    20    1
    41    10    14    1
@<TRIPOS>MOLECULE
*****
 38 41 0 0 0
SMALL
GASTEIGER

@<TRIPOS>ATOM
      1 S         139.4003  139.9990  164.7163 S.O2    1  UNL1        0.0134
      2 O         138.0577  140.1065  164.6245 O.2     1  UNL1       -0.1683
      3 O         140.8905  139.8457  164.6385 O.2     1  UNL1       -0.1683
      4 C         139.5050  140.2684  166.1882 C.3     1  UNL1        0.1845
      5 C         140.0767  141.5833  165.7471 C.3     1  UNL1        0.0313
      6 C         140.4106  142.3786  166.9743 C.3     1  UNL1        0.0024
      7 C         140.0452  141.5553  168.1739 C.3     1  UNL1        0.0048
      8 C         139.6328  140.6212  169.2727 C.3     1  UNL1        0.0172
      9 C         139.7982  141.0303  170.7063 C.3     1  UNL1        0.0686
     10 N         140.3759  142.3735  171.0411 N.3     1  UNL1       -0.2975
     11 C         140.7883  143.3076  169.9423 C.3     1  UNL1        0.0686
     12 C         140.6230  142.8985  168.5087 C.3     1  UNL1        0.0172
     13 C         139.4856  140.2512  167.6881 C.3     1  UNL1        0.0314
     14 H         141.2053  142.2037  171.6101 H       1  UNL1        0.1232
     15 O         139.4309  137.7390  165.8624 O.2     1  UNL1       -0.2713
     16 C         138.9114  138.8974  166.3216 C.2     1  UNL1        0.2644
     17 N         137.6015  138.7126  167.0287 N.am    1  UNL1       -0.1956
     18 O         137.0081  137.3415  167.1621 O.3     1  UNL1       -0.2951
     19 H         137.1313  139.4913  167.4053 H       1  UNL1        0.1823
     20 H         137.5935  136.6934  166.7400 H       1  UNL1        0.2414
     21 C         139.2956  139.7296  163.2444 C.ar    1  UNL1        0.1063
     22 C         139.6652  140.7979  162.2584 C.ar    1  UNL1        0.0215
     23 C         139.5605  140.5285  160.7865 C.ar    1  UNL1        0.0388
     24 C         139.0863  139.1909  160.3007 C.ar    1  UNL1        0.1454
     25 C         138.7168  138.1228  161.2868 C.ar    1  UNL1        0.0388
     26 C         138.8214  138.3921  162.7587 C.ar    1  UNL1        0.0215
     27 O         138.9816  138.9215  158.8288 O.3     1  UNL1       -0.4535
     28 C         140.1323  138.2967  158.0969 C.ar    1  UNL1        0.1455
     29 C         141.5226  138.4106  158.6485 C.ar    1  UNL1        0.0406
     30 C         142.6733  137.7859  157.9167 C.ar    1  UNL1        0.0403
     31 C         142.4338  137.0472  156.6334 C.ar    1  UNL1        0.1470
     32 C         141.0435  136.9333  156.0818 C.ar    1  UNL1        0.0403
     33 C         139.8928  137.5580  156.8136 C.ar    1  UNL1        0.0406
     34 O         143.5844  136.4225  155.9016 O.3     1  UNL1       -0.4045
     35 C         143.6019  134.9430  155.6548 C.3     1  UNL1        0.5753
     36 F         143.6194  133.4635  155.4079 F       1  UNL1       -0.1328
     37 F         143.9841  134.7087  157.0861 F       1  UNL1       -0.1328
     38 F         143.2198  135.1774  154.2233 F       1  UNL1       -0.1328
@<TRIPOS>BOND
     1    15    16    2
     2    16    17   am
     3    17    18    1
     4    16     4    1
     5     4     1    1
     6     1     2    2
     7     1     3    2
     8     1    21    1
     9    21    22   ar
    10    22    23   ar
    11    23    24   ar
    12    24    27    1
    13    27    28    1
    14    28    29   ar
    15    29    30   ar
    16    30    31   ar
    17    31    34    1
    18    34    35    1
    19    35    36    1
    20    35    37    1
    21    35    38    1
    22    31    32   ar
    23    32    33   ar
    24    24    25   ar
    25    25    26   ar
    26     4     5    1
    27     5     6    1
    28     6     7    1
    29     7     8    1
    30     8     9    1
    31     9    10    1
    32    10    11    1
    33    11    12    1
    34     7    13    1
    35    13     4    1
    36    26    21   ar
    37    12     7    1
    38    33    28   ar
    39    17    19    1
    40    18    20    1
    41    10    14    1
@<TRIPOS>MOLECULE
*****
 38 41 0 0 0
SMALL
GASTEIGER

@<TRIPOS>ATOM
      1 S         139.9007  141.0053  164.7797 S.O2    1  UNL1        0.0134
      2 O         138.5758  141.2538  164.7072 O.2     1  UNL1       -0.1683
      3 O         141.3585  140.6630  164.6902 O.2     1  UNL1       -0.1683
      4 C         140.1087  141.5270  166.1705 C.3     1  UNL1        0.1845
      5 C         139.9168  140.0934  166.5680 C.3     1  UNL1        0.0313
      6 C         140.0372  140.0061  168.0606 C.3     1  UNL1        0.0024
      7 C         140.3036  141.3858  168.5857 C.3     1  UNL1        0.0048
      8 C         140.5643  142.8143  168.9617 C.3     1  UNL1        0.0172
      9 C         140.7532  143.1882  170.4019 C.3     1  UNL1        0.0686
     10 N         140.6815  142.1337  171.4662 N.3     1  UNL1       -0.2975
     11 C         140.4208  140.7052  171.0903 C.3     1  UNL1        0.0686
     12 C         140.2318  140.3312  169.6501 C.3     1  UNL1        0.0172
     13 C         140.3478  142.3258  167.4176 C.3     1  UNL1        0.0314
     14 H         139.9364  142.4106  172.1054 H       1  UNL1        0.1232
     15 O         141.3582  143.3257  164.8616 O.2     1  UNL1       -0.2713
     16 C         140.2572  142.8516  165.4825 C.2     1  UNL1        0.2644
     17 N         139.1018  143.8070  165.4373 N.am    1  UNL1       -0.1956
     18 O         139.2503  145.1316  164.7491 O.3     1  UNL1       -0.2951
     19 H         138.2459  143.5648  165.8593 H       1  UNL1        0.1823
     20 H         140.1481  145.2107  164.3904 H       1  UNL1        0.2414
     21 C         139.6927  140.4835  163.3889 C.ar    1  UNL1        0.1063
     22 C         139.9120  141.3839  162.2094 C.ar    1  UNL1        0.0215
     23 C         139.7040  140.8622  160.8186 C.ar    1  UNL1        0.0388
     24 C         139.2767  139.4399  160.6072 C.ar    1  UNL1        0.1454
     25 C         139.0574  138.5396  161.7866 C.ar    1  UNL1        0.0388
     26 C         139.2654  139.0613  163.1775 C.ar    1  UNL1        0.0215
     27 O         139.0687  138.9181  159.2164 O.3     1  UNL1       -0.4535
     28 C         140.2154  138.3108  158.4638 C.ar    1  UNL1        0.1455
     29 C         141.6037  138.3812  159.0275 C.ar    1  UNL1        0.0406
     30 C         142.7505  137.7740  158.2750 C.ar    1  UNL1        0.0403
     31 C         142.5089  137.0963  156.9588 C.ar    1  UNL1        0.1470
     32 C         141.1206  137.0259  156.3951 C.ar    1  UNL1        0.0403
     33 C         139.9739  137.6331  157.1476 C.ar    1  UNL1        0.0406
     34 O         143.6555  136.4890  156.2063 O.3     1  UNL1       -0.4045
     35 C         143.6103  135.0432  155.8091 C.3     1  UNL1        0.5753
     36 F         143.5651  133.5974  155.4121 F       1  UNL1       -0.1328
     37 F         143.2816  135.4403  154.4006 F       1  UNL1       -0.1328
     38 F         143.9391  134.6461  157.2178 F       1  UNL1       -0.1328
@<TRIPOS>BOND
     1    15    16    2
     2    16    17   am
     3    17    18    1
     4    16     4    1
     5     4     1    1
     6     1     2    2
     7     1     3    2
     8     1    21    1
     9    21    22   ar
    10    22    23   ar
    11    23    24   ar
    12    24    27    1
    13    27    28    1
    14    28    29   ar
    15    29    30   ar
    16    30    31   ar
    17    31    34    1
    18    34    35    1
    19    35    36    1
    20    35    37    1
    21    35    38    1
    22    31    32   ar
    23    32    33   ar
    24    24    25   ar
    25    25    26   ar
    26     4     5    1
    27     5     6    1
    28     6     7    1
    29     7     8    1
    30     8     9    1
    31     9    10    1
    32    10    11    1
    33    11    12    1
    34     7    13    1
    35    13     4    1
    36    26    21   ar
    37    12     7    1
    38    33    28   ar
    39    17    19    1
    40    18    20    1
    41    10    14    1
@<TRIPOS>MOLECULE
*****
 38 41 0 0 0
SMALL
GASTEIGER

@<TRIPOS>ATOM
      1 S         139.2244  140.1369  164.8862 S.O2    1  UNL1        0.0134
      2 O         140.4873  139.8588  164.4984 O.2     1  UNL1       -0.1683
      3 O         137.7771  140.4387  165.1396 O.2     1  UNL1       -0.1683
      4 C         139.4983  140.2140  166.3590 C.3     1  UNL1        0.1845
      5 C         140.1197  141.5352  166.0145 C.3     1  UNL1        0.0313
      6 C         140.6357  142.1493  167.2821 C.3     1  UNL1        0.0024
      7 C         140.3332  141.2077  168.4100 C.3     1  UNL1        0.0048
      8 C         139.9655  140.1718  169.4306 C.3     1  UNL1        0.0172
      9 C         140.3062  140.3883  170.8752 C.3     1  UNL1        0.0686
     10 N         141.0146  141.6406  171.2992 N.3     1  UNL1       -0.2975
     11 C         141.3824  142.6765  170.2786 C.3     1  UNL1        0.0686
     12 C         141.0417  142.4600  168.8340 C.3     1  UNL1        0.0172
     13 C         139.6303  140.0117  167.8395 C.3     1  UNL1        0.0314
     14 H         141.8824  141.3499  171.7496 H       1  UNL1        0.1232
     15 O         139.1469  137.7799  165.6799 O.2     1  UNL1       -0.2713
     16 C         138.8197  138.8769  166.3956 C.2     1  UNL1        0.2644
     17 N         137.6435  138.6572  167.3001 N.am    1  UNL1       -0.1956
     18 O         136.9650  137.3199  167.3367 O.3     1  UNL1       -0.2951
     19 H         137.3168  139.3906  167.8698 H       1  UNL1        0.1823
     20 H         137.4080  136.7156  166.7207 H       1  UNL1        0.2414
     21 C         138.9506  140.0597  163.4135 C.ar    1  UNL1        0.1063
     22 C         139.8563  139.2617  162.5230 C.ar    1  UNL1        0.0215
     23 C         139.5824  139.1845  161.0503 C.ar    1  UNL1        0.0388
     24 C         138.4029  139.9053  160.4680 C.ar    1  UNL1        0.1454
     25 C         137.4972  140.7032  161.3584 C.ar    1  UNL1        0.0388
     26 C         137.7711  140.7804  162.8312 C.ar    1  UNL1        0.0215
     27 O         138.1290  139.8281  158.9952 O.3     1  UNL1       -0.4535
     28 C         138.4377  141.0010  158.1124 C.ar    1  UNL1        0.1455
     29 C         139.7844  141.6580  158.1819 C.ar    1  UNL1        0.0406
     30 C         140.0931  142.8308  157.2991 C.ar    1  UNL1        0.0403
     31 C         139.0552  143.3466  156.3470 C.ar    1  UNL1        0.1470
     32 C         137.7085  142.6896  156.2776 C.ar    1  UNL1        0.0403
     33 C         137.3997  141.5168  157.1603 C.ar    1  UNL1        0.0406
     34 O         139.3638  144.5193  155.4643 O.3     1  UNL1       -0.4045
     35 C         138.9808  145.9040  155.8955 C.3     1  UNL1        0.5753
     36 F         138.5979  147.2887  156.3269 F       1  UNL1       -0.1328
     37 F         137.6895  145.7816  155.1424 F       1  UNL1       -0.1328
     38 F         140.2722  146.0265  156.6488 F       1  UNL1       -0.1328
@<TRIPOS>BOND
     1    15    16    2
     2    16    17   am
     3    17    18    1
     4    16     4    1
     5     4     1    1
     6     1     2    2
     7     1     3    2
     8     1    21    1
     9    21    22   ar
    10    22    23   ar
    11    23    24   ar
    12    24    27    1
    13    27    28    1
    14    28    29   ar
    15    29    30   ar
    16    30    31   ar
    17    31    34    1
    18    34    35    1
    19    35    36    1
    20    35    37    1
    21    35    38    1
    22    31    32   ar
    23    32    33   ar
    24    24    25   ar
    25    25    26   ar
    26     4     5    1
    27     5     6    1
    28     6     7    1
    29     7     8    1
    30     8     9    1
    31     9    10    1
    32    10    11    1
    33    11    12    1
    34     7    13    1
    35    13     4    1
    36    26    21   ar
    37    12     7    1
    38    33    28   ar
    39    17    19    1
    40    18    20    1
    41    10    14    1
@<TRIPOS>MOLECULE
*****
 38 41 0 0 0
SMALL
GASTEIGER

@<TRIPOS>ATOM
      1 S         140.4103  139.7392  163.9283 S.O2    1  UNL1        0.0134
      2 O         139.7287  138.5799  163.8101 O.2     1  UNL1       -0.1683
      3 O         141.1829  141.0240  163.8772 O.2     1  UNL1       -0.1683
      4 C         140.3330  139.8451  165.4225 C.3     1  UNL1        0.1845
      5 C         141.8022  139.5484  165.3622 C.3     1  UNL1        0.0313
      6 C         142.3291  139.5284  166.7665 C.3     1  UNL1        0.0024
      7 C         141.1856  139.8127  167.6948 C.3     1  UNL1        0.0048
      8 C         139.9517  140.1073  168.4951 C.3     1  UNL1        0.0172
      9 C         140.0284  140.1827  169.9912 C.3     1  UNL1        0.0686
     10 N         141.3391  139.9634  170.6870 N.3     1  UNL1       -0.2975
     11 C         142.5730  139.6688  169.8867 C.3     1  UNL1        0.0686
     12 C         142.4963  139.5934  168.3906 C.3     1  UNL1        0.0172
     13 C         139.9520  140.0085  166.8642 C.3     1  UNL1        0.0314
     14 H         141.2065  139.1777  171.3238 H       1  UNL1        0.1232
     15 O         137.8258  139.4539  165.6882 O.2     1  UNL1       -0.2713
     16 C         138.8801  140.1197  165.1706 C.2     1  UNL1        0.2644
     17 N         138.4755  141.2382  164.2567 N.am    1  UNL1       -0.1956
     18 O         137.0225  141.5126  164.0049 O.3     1  UNL1       -0.2951
     19 H         139.1637  141.7922  163.8222 H       1  UNL1        0.1823
     20 H         136.4827  140.8810  164.5054 H       1  UNL1        0.2414
     21 C         140.4876  139.6332  162.4341 C.ar    1  UNL1        0.1063
     22 C         141.5477  140.3829  161.6829 C.ar    1  UNL1        0.0215
     23 C         141.6250  140.2769  160.1887 C.ar    1  UNL1        0.0388
     24 C         140.6422  139.4213  159.4456 C.ar    1  UNL1        0.1454
     25 C         139.5821  138.6718  160.1968 C.ar    1  UNL1        0.0388
     26 C         139.5049  138.7777  161.6910 C.ar    1  UNL1        0.0215
     27 O         140.7194  139.3154  157.9514 O.3     1  UNL1       -0.4535
     28 C         141.1966  138.0445  157.3132 C.ar    1  UNL1        0.1455
     29 C         142.5347  137.4761  157.6826 C.ar    1  UNL1        0.0406
     30 C         143.0119  136.2053  157.0446 C.ar    1  UNL1        0.0403
     31 C         142.1509  135.5027  156.0370 C.ar    1  UNL1        0.1470
     32 C         140.8128  136.0710  155.6676 C.ar    1  UNL1        0.0403
     33 C         140.3356  137.3419  156.3057 C.ar    1  UNL1        0.0406
     34 O         142.6280  134.2319  155.3989 O.3     1  UNL1       -0.4045
     35 C         142.5283  132.9345  156.1452 C.3     1  UNL1        0.5753
     36 F         142.4286  131.6371  156.8914 F       1  UNL1       -0.1328
     37 F         143.9336  133.1105  156.6391 F       1  UNL1       -0.1328
     38 F         141.1229  132.7585  155.6513 F       1  UNL1       -0.1328
@<TRIPOS>BOND
     1    15    16    2
     2    16    17   am
     3    17    18    1
     4    16     4    1
     5     4     1    1
     6     1     2    2
     7     1     3    2
     8     1    21    1
     9    21    22   ar
    10    22    23   ar
    11    23    24   ar
    12    24    27    1
    13    27    28    1
    14    28    29   ar
    15    29    30   ar
    16    30    31   ar
    17    31    34    1
    18    34    35    1
    19    35    36    1
    20    35    37    1
    21    35    38    1
    22    31    32   ar
    23    32    33   ar
    24    24    25   ar
    25    25    26   ar
    26     4     5    1
    27     5     6    1
    28     6     7    1
    29     7     8    1
    30     8     9    1
    31     9    10    1
    32    10    11    1
    33    11    12    1
    34     7    13    1
    35    13     4    1
    36    26    21   ar
    37    12     7    1
    38    33    28   ar
    39    17    19    1
    40    18    20    1
    41    10    14    1
@<TRIPOS>MOLECULE
*****
 38 41 0 0 0
SMALL
GASTEIGER

@<TRIPOS>ATOM
      1 S         141.1715  139.4857  164.9486 S.O2    1  UNL1        0.0134
      2 O         141.0479  140.8022  164.6767 O.2     1  UNL1       -0.1683
      3 O         141.2558  137.9936  165.0780 O.2     1  UNL1       -0.1683
      4 C         141.6129  139.6342  166.3745 C.3     1  UNL1        0.1845
      5 C         140.1983  140.0789  166.6011 C.3     1  UNL1        0.0313
      6 C         140.0419  140.4028  168.0573 C.3     1  UNL1        0.0024
      7 C         141.3597  140.1583  168.7308 C.3     1  UNL1        0.0048
      8 C         142.7323  139.8712  169.2634 C.3     1  UNL1        0.0172
      9 C         143.0274  140.0672  170.7209 C.3     1  UNL1        0.0686
     10 N         141.9499  140.5504  171.6459 N.3     1  UNL1       -0.2975
     11 C         140.5773  140.8375  171.1133 C.3     1  UNL1        0.0686
     12 C         140.2823  140.6414  169.6558 C.3     1  UNL1        0.0172
     13 C         142.3307  139.6832  167.6908 C.3     1  UNL1        0.0314
     14 H         142.2892  141.4153  172.0669 H       1  UNL1        0.1232
     15 O         143.5564  137.9971  166.1463 O.2     1  UNL1       -0.2713
     16 C         142.9351  139.1584  165.8499 C.2     1  UNL1        0.2644
     17 N         143.7106  140.0092  164.8883 N.am    1  UNL1       -0.1956
     18 O         145.0329  139.5333  164.3638 O.3     1  UNL1       -0.2951
     19 H         143.3518  140.8799  164.6014 H       1  UNL1        0.1823
     20 H         145.2374  138.6643  164.7431 H       1  UNL1        0.2414
     21 C         140.7302  139.3371  163.5228 C.ar    1  UNL1        0.1063
     22 C         140.1304  138.0446  163.0541 C.ar    1  UNL1        0.0215
     23 C         139.6891  137.8961  161.6282 C.ar    1  UNL1        0.0388
     24 C         139.8475  139.0401  160.6710 C.ar    1  UNL1        0.1454
     25 C         140.4473  140.3326  161.1397 C.ar    1  UNL1        0.0388
     26 C         140.8886  140.4811  162.5656 C.ar    1  UNL1        0.0215
     27 O         139.4062  138.8916  159.2451 O.3     1  UNL1       -0.4535
     28 C         140.3430  138.3132  158.2264 C.ar    1  UNL1        0.1455
     29 C         139.7969  137.6118  157.0181 C.ar    1  UNL1        0.0406
     30 C         140.7337  137.0334  155.9993 C.ar    1  UNL1        0.0403
     31 C         142.2166  137.1563  156.1889 C.ar    1  UNL1        0.1470
     32 C         142.7627  137.8577  157.3971 C.ar    1  UNL1        0.0403
     33 C         141.8259  138.4361  158.4159 C.ar    1  UNL1        0.0406
     34 O         143.1534  136.5780  155.1702 O.3     1  UNL1       -0.4045
     35 C         143.3006  135.0904  155.0458 C.3     1  UNL1        0.5753
     36 F         143.4478  133.6028  154.9213 F       1  UNL1       -0.1328
     37 F         144.1214  135.0666  156.3010 F       1  UNL1       -0.1328
     38 F         142.4798  135.1142  153.7905 F       1  UNL1       -0.1328
@<TRIPOS>BOND
     1    15    16    2
     2    16    17   am
     3    17    18    1
     4    16     4    1
     5     4     1    1
     6     1     2    2
     7     1     3    2
     8     1    21    1
     9    21    22   ar
    10    22    23   ar
    11    23    24   ar
    12    24    27    1
    13    27    28    1
    14    28    29   ar
    15    29    30   ar
    16    30    31   ar
    17    31    34    1
    18    34    35    1
    19    35    36    1
    20    35    37    1
    21    35    38    1
    22    31    32   ar
    23    32    33   ar
    24    24    25   ar
    25    25    26   ar
    26     4     5    1
    27     5     6    1
    28     6     7    1
    29     7     8    1
    30     8     9    1
    31     9    10    1
    32    10    11    1
    33    11    12    1
    34     7    13    1
    35    13     4    1
    36    26    21   ar
    37    12     7    1
    38    33    28   ar
    39    17    19    1
    40    18    20    1
    41    10    14    1
@<TRIPOS>MOLECULE
*****
 38 41 0 0 0
SMALL
GASTEIGER

@<TRIPOS>ATOM
      1 S         139.6444  141.6602  164.9488 S.O2    1  UNL1        0.0134
      2 O         138.2954  141.6966  164.9116 O.2     1  UNL1       -0.1683
      3 O         141.1384  141.6726  164.8149 O.2     1  UNL1       -0.1683
      4 C         139.7762  141.2277  166.3790 C.3     1  UNL1        0.1845
      5 C         140.3132  142.6132  166.5841 C.3     1  UNL1        0.0313
      6 C         140.6589  142.7662  168.0356 C.3     1  UNL1        0.0024
      7 C         140.3356  141.4753  168.7278 C.3     1  UNL1        0.0048
      8 C         139.9650  140.1308  169.2800 C.3     1  UNL1        0.0172
      9 C         140.1540  139.8416  170.7397 C.3     1  UNL1        0.0686
     10 N         140.7136  140.8968  171.6471 N.3     1  UNL1       -0.2975
     11 C         141.0841  142.2413  171.0948 C.3     1  UNL1        0.0686
     12 C         140.8951  142.5305  169.6352 C.3     1  UNL1        0.0172
     13 C         139.7900  140.5244  167.7039 C.3     1  UNL1        0.0314
     14 H         141.5583  140.5074  172.0657 H       1  UNL1        0.1232
     15 O         138.0498  139.3538  166.2460 O.2     1  UNL1       -0.2713
     16 C         139.2117  139.9326  165.8751 C.2     1  UNL1        0.2644
     17 N         139.9608  139.1372  164.8474 N.am    1  UNL1       -0.1956
     18 O         139.3961  137.8421  164.3435 O.3     1  UNL1       -0.2951
     19 H         140.8230  139.4652  164.5036 H       1  UNL1        0.1823
     20 H         138.5483  137.6670  164.7810 H       1  UNL1        0.2414
     21 C         139.5125  142.0927  163.5186 C.ar    1  UNL1        0.1063
     22 C         140.6917  142.6796  162.8008 C.ar    1  UNL1        0.0215
     23 C         140.5598  143.1121  161.3706 C.ar    1  UNL1        0.0388
     24 C         139.2488  142.9577  160.6582 C.ar    1  UNL1        0.1454
     25 C         138.0698  142.3708  161.3760 C.ar    1  UNL1        0.0388
     26 C         138.2016  141.9383  162.8062 C.ar    1  UNL1        0.0215
     27 O         139.1170  143.3902  159.2279 O.3     1  UNL1       -0.4535
     28 C         138.6309  142.4196  158.1926 C.ar    1  UNL1        0.1455
     29 C         137.4907  142.7922  157.2920 C.ar    1  UNL1        0.0406
     30 C         137.0046  141.8217  156.2567 C.ar    1  UNL1        0.0403
     31 C         137.6588  140.4786  156.1220 C.ar    1  UNL1        0.1470
     32 C         138.7990  140.1060  157.0226 C.ar    1  UNL1        0.0403
     33 C         139.2851  141.0765  158.0579 C.ar    1  UNL1        0.0406
     34 O         137.1728  139.5081  155.0868 O.3     1  UNL1       -0.4045
     35 C         135.9546  139.8281  154.2720 C.3     1  UNL1        0.5753
     36 F         134.7364  140.1479  153.4573 F       1  UNL1       -0.1328
     37 F         136.8221  140.4539  153.2206 F       1  UNL1       -0.1328
     38 F         135.0871  139.2022  155.3235 F       1  UNL1       -0.1328
@<TRIPOS>BOND
     1    15    16    2
     2    16    17   am
     3    17    18    1
     4    16     4    1
     5     4     1    1
     6     1     2    2
     7     1     3    2
     8     1    21    1
     9    21    22   ar
    10    22    23   ar
    11    23    24   ar
    12    24    27    1
    13    27    28    1
    14    28    29   ar
    15    29    30   ar
    16    30    31   ar
    17    31    34    1
    18    34    35    1
    19    35    36    1
    20    35    37    1
    21    35    38    1
    22    31    32   ar
    23    32    33   ar
    24    24    25   ar
    25    25    26   ar
    26     4     5    1
    27     5     6    1
    28     6     7    1
    29     7     8    1
    30     8     9    1
    31     9    10    1
    32    10    11    1
    33    11    12    1
    34     7    13    1
    35    13     4    1
    36    26    21   ar
    37    12     7    1
    38    33    28   ar
    39    17    19    1
    40    18    20    1
    41    10    14    1
@<TRIPOS>MOLECULE
*****
 38 41 0 0 0
SMALL
GASTEIGER

@<TRIPOS>ATOM
      1 S         141.0541  138.7652  160.1231 S.O2    1  UNL1        0.0134
      2 O         140.4184  137.6405  160.5147 O.2     1  UNL1       -0.1683
      3 O         141.6880  140.0942  159.8363 O.2     1  UNL1       -0.1683
      4 C         141.6882  138.1964  158.8885 C.3     1  UNL1        0.1845
      5 C         140.2808  138.1655  158.3704 C.3     1  UNL1        0.0313
      6 C         140.3115  137.6089  156.9778 C.3     1  UNL1        0.0024
      7 C         141.7380  137.2957  156.6352 C.3     1  UNL1        0.0048
      8 C         143.2016  137.0348  156.4359 C.3     1  UNL1        0.0172
      9 C         143.6911  136.4596  155.1400 C.3     1  UNL1        0.0686
     10 N         142.7171  136.1453  154.0434 N.3     1  UNL1       -0.2975
     11 C         141.2535  136.4062  154.2427 C.3     1  UNL1        0.0686
     12 C         140.7640  136.9814  155.5386 C.3     1  UNL1        0.0172
     13 C         142.5888  137.6588  157.8160 C.3     1  UNL1        0.0314
     14 H         142.8139  135.1505  153.8398 H       1  UNL1        0.1232
     15 O         143.9961  139.1670  159.3793 O.2     1  UNL1       -0.2713
     16 C         142.9630  138.3461  159.6645 C.2     1  UNL1        0.2644
     17 N         143.1877  137.5297  160.9027 N.am    1  UNL1       -0.1956
     18 O         144.4626  137.6795  161.6787 O.3     1  UNL1       -0.2951
     19 H         142.4985  136.8956  161.2060 H       1  UNL1        0.1823
     20 H         145.0280  138.3393  161.2474 H       1  UNL1        0.2414
     21 C         140.4201  139.3341  161.3578 C.ar    1  UNL1        0.1063
     22 C         139.1733  138.7133  161.9146 C.ar    1  UNL1        0.0215
     23 C         138.5393  139.2822  163.1493 C.ar    1  UNL1        0.0388
     24 C         139.1521  140.4717  163.8271 C.ar    1  UNL1        0.1454
     25 C         140.3988  141.0924  163.2702 C.ar    1  UNL1        0.0388
     26 C         141.0329  140.5236  162.0355 C.ar    1  UNL1        0.0215
     27 O         138.5180  141.0406  165.0617 O.3     1  UNL1       -0.4535
     28 C         139.3304  141.2123  166.3111 C.ar    1  UNL1        0.1455
     29 C         139.4364  140.0870  167.2973 C.ar    1  UNL1        0.0406
     30 C         140.2487  140.2587  168.5466 C.ar    1  UNL1        0.0403
     31 C         140.9550  141.5555  168.8096 C.ar    1  UNL1        0.1470
     32 C         140.8490  142.6808  167.8234 C.ar    1  UNL1        0.0403
     33 C         140.0367  142.5091  166.5741 C.ar    1  UNL1        0.0406
     34 O         141.7673  141.7272  170.0588 O.3     1  UNL1       -0.4045
     35 C         143.2080  142.1345  169.9666 C.3     1  UNL1        0.5753
     36 F         144.6488  142.5417  169.8743 F       1  UNL1       -0.1328
     37 F         142.8427  143.5244  170.3959 F       1  UNL1       -0.1328
     38 F         143.5734  140.7445  169.5372 F       1  UNL1       -0.1328
@<TRIPOS>BOND
     1    15    16    2
     2    16    17   am
     3    17    18    1
     4    16     4    1
     5     4     1    1
     6     1     2    2
     7     1     3    2
     8     1    21    1
     9    21    22   ar
    10    22    23   ar
    11    23    24   ar
    12    24    27    1
    13    27    28    1
    14    28    29   ar
    15    29    30   ar
    16    30    31   ar
    17    31    34    1
    18    34    35    1
    19    35    36    1
    20    35    37    1
    21    35    38    1
    22    31    32   ar
    23    32    33   ar
    24    24    25   ar
    25    25    26   ar
    26     4     5    1
    27     5     6    1
    28     6     7    1
    29     7     8    1
    30     8     9    1
    31     9    10    1
    32    10    11    1
    33    11    12    1
    34     7    13    1
    35    13     4    1
    36    26    21   ar
    37    12     7    1
    38    33    28   ar
    39    17    19    1
    40    18    20    1
    41    10    14    1
@<TRIPOS>MOLECULE
*****
 38 41 0 0 0
SMALL
GASTEIGER

@<TRIPOS>ATOM
      1 S         141.7613  143.6527  159.5997 S.O2    1  UNL1        0.0134
      2 O         141.3581  142.4599  159.1126 O.2     1  UNL1       -0.1683
      3 O         142.2945  144.8830  160.2722 O.2     1  UNL1       -0.1683
      4 C         141.0944  144.5081  158.5636 C.3     1  UNL1        0.1845
      5 C         142.2461  144.0854  157.7004 C.3     1  UNL1        0.0313
      6 C         142.0793  144.7306  156.3565 C.3     1  UNL1        0.0024
      7 C         140.8246  145.5520  156.3891 C.3     1  UNL1        0.0048
      8 C         139.5525  146.3259  156.5704 C.3     1  UNL1        0.0172
      9 C         139.0030  147.1416  155.4379 C.3     1  UNL1        0.0686
     10 N         139.7256  147.1834  154.1240 N.3     1  UNL1       -0.2975
     11 C         140.9977  146.4095  153.9428 C.3     1  UNL1        0.0686
     12 C         141.5472  145.5938  155.0753 C.3     1  UNL1        0.0172
     13 C         140.2159  145.4145  157.7532 C.3     1  UNL1        0.0314
     14 H         139.9477  148.1620  153.9412 H       1  UNL1        0.1232
     15 O         139.2325  143.8500  160.1791 O.2     1  UNL1       -0.2713
     16 C         140.0822  144.7519  159.6433 C.2     1  UNL1        0.2644
     17 N         139.9391  146.1197  160.2423 N.am    1  UNL1       -0.1956
     18 O         138.9268  146.3634  161.3220 O.3     1  UNL1       -0.2951
     19 H         140.5096  146.8574  159.9268 H       1  UNL1        0.1823
     20 H         138.4530  145.5389  161.5131 H       1  UNL1        0.2414
     21 C         142.4282  142.7973  160.6358 C.ar    1  UNL1        0.1063
     22 C         141.7578  141.5457  161.1197 C.ar    1  UNL1        0.0215
     23 C         142.4247  140.6903  162.1558 C.ar    1  UNL1        0.0388
     24 C         143.7619  141.0865  162.7080 C.ar    1  UNL1        0.1454
     25 C         144.4322  142.3380  162.2241 C.ar    1  UNL1        0.0388
     26 C         143.7653  143.1934  161.1880 C.ar    1  UNL1        0.0215
     27 O         144.4288  140.2311  163.7441 O.3     1  UNL1       -0.4535
     28 C         143.8043  140.0693  165.0984 C.ar    1  UNL1        0.1455
     29 C         143.7736  138.7204  165.7539 C.ar    1  UNL1        0.0406
     30 C         143.1491  138.5586  167.1081 C.ar    1  UNL1        0.0403
     31 C         142.5554  139.7457  167.8068 C.ar    1  UNL1        0.1470
     32 C         142.5861  141.0946  167.1513 C.ar    1  UNL1        0.0403
     33 C         143.2105  141.2564  165.7971 C.ar    1  UNL1        0.0406
     34 O         141.9309  139.5840  169.1609 O.3     1  UNL1       -0.4045
     35 C         140.6514  140.2958  169.4867 C.3     1  UNL1        0.5753
     36 F         139.3718  141.0075  169.8124 F       1  UNL1       -0.1328
     37 F         141.3527  141.0613  170.5692 F       1  UNL1       -0.1328
     38 F         139.9500  139.5302  168.4041 F       1  UNL1       -0.1328
@<TRIPOS>BOND
     1    15    16    2
     2    16    17   am
     3    17    18    1
     4    16     4    1
     5     4     1    1
     6     1     2    2
     7     1     3    2
     8     1    21    1
     9    21    22   ar
    10    22    23   ar
    11    23    24   ar
    12    24    27    1
    13    27    28    1
    14    28    29   ar
    15    29    30   ar
    16    30    31   ar
    17    31    34    1
    18    34    35    1
    19    35    36    1
    20    35    37    1
    21    35    38    1
    22    31    32   ar
    23    32    33   ar
    24    24    25   ar
    25    25    26   ar
    26     4     5    1
    27     5     6    1
    28     6     7    1
    29     7     8    1
    30     8     9    1
    31     9    10    1
    32    10    11    1
    33    11    12    1
    34     7    13    1
    35    13     4    1
    36    26    21   ar
    37    12     7    1
    38    33    28   ar
    39    17    19    1
    40    18    20    1
    41    10    14    1
