@<TRIPOS>MOLECULE
*****
 22 23 0 0 0
SMALL
GASTEIGER

@<TRIPOS>ATOM
      1 C         142.7120  142.0770  166.8069 C.ar    1  UNL1        0.0282
      2 C         143.2811  142.3171  168.1738 C.ar    1  UNL1        0.0000
      3 C         142.3757  142.7018  169.3062 C.ar    1  UNL1        0.0038
      4 C         140.9012  142.8464  169.0716 C.ar    1  UNL1        0.0744
      5 C         140.3322  142.6063  167.7047 C.ar    1  UNL1        0.0411
      6 C         141.2376  142.2216  166.5724 C.ar    1  UNL1        0.1425
      7 C         139.9958  143.2311  170.2040 C.3     1  UNL1        0.4187
      8 F         139.0905  143.6158  171.3364 F       1  UNL1       -0.1659
      9 F         140.4647  144.6519  170.0962 F       1  UNL1       -0.1659
     10 F         139.5270  141.8103  170.3118 F       1  UNL1       -0.1659
     11 C         143.6174  141.6923  165.6745 C.3     1  UNL1        0.0987
     12 C         143.4219  139.1629  165.1143 C.3     1  UNL1        0.0861
     13 N         143.2147  140.5982  164.7308 N.3     1  UNL1       -0.2925
     14 H         142.2170  140.7146  164.5536 H       1  UNL1        0.1236
     15 O         140.6684  141.9815  165.2054 O.3     1  UNL1       -0.4538
     16 C         140.3777  143.1414  164.2997 C.ar    1  UNL1        0.1453
     17 C         141.4916  144.0401  163.8508 C.ar    1  UNL1        0.0384
     18 C         141.2009  145.1999  162.9452 C.ar    1  UNL1        0.0145
     19 C         139.7962  145.4610  162.4884 C.ar    1  UNL1        0.0579
     20 CL        139.5054  146.6208  161.5827 Cl      1  UNL1       -0.0822
     21 C         138.6822  144.5624  162.9373 C.ar    1  UNL1        0.0145
     22 C         138.9730  143.4025  163.8430 C.ar    1  UNL1        0.0384
@<TRIPOS>BOND
     1    12    13    1
     2    13    11    1
     3    11     1    1
     4     1     2   ar
     5     2     3   ar
     6     3     4   ar
     7     4     7    1
     8     7     8    1
     9     7     9    1
    10     7    10    1
    11     4     5   ar
    12     5     6   ar
    13     6    15    1
    14    15    16    1
    15    16    17   ar
    16    17    18   ar
    17    18    19   ar
    18    19    20    1
    19    19    21   ar
    20    21    22   ar
    21     6     1   ar
    22    22    16   ar
    23    13    14    1
@<TRIPOS>MOLECULE
*****
 22 23 0 0 0
SMALL
GASTEIGER

@<TRIPOS>ATOM
      1 C         142.5477  144.1680  163.9267 C.ar    1  UNL1        0.0282
      2 C         143.8700  144.0481  163.2287 C.ar    1  UNL1        0.0000
      3 C         144.6735  142.7878  163.3558 C.ar    1  UNL1        0.0038
      4 C         144.1548  141.6476  164.1808 C.ar    1  UNL1        0.0744
      5 C         142.8325  141.7675  164.8787 C.ar    1  UNL1        0.0411
      6 C         142.0290  143.0277  164.7517 C.ar    1  UNL1        0.1425
      7 C         144.9584  140.3873  164.3078 C.3     1  UNL1        0.4187
      8 F         145.7619  139.1271  164.4349 F       1  UNL1       -0.1659
      9 F         146.1955  141.1359  163.9087 F       1  UNL1       -0.1659
     10 F         143.7213  139.6388  164.7069 F       1  UNL1       -0.1659
     11 C         141.7441  145.4282  163.7996 C.3     1  UNL1        0.0987
     12 C         139.9317  146.0275  162.0373 C.3     1  UNL1        0.0861
     13 N         140.3223  145.3665  163.3260 N.3     1  UNL1       -0.2925
     14 H         140.0852  144.3788  163.2340 H       1  UNL1        0.1236
     15 O         140.7067  143.1476  165.4497 O.3     1  UNL1       -0.4538
     16 C         139.9400  141.9131  165.8210 C.ar    1  UNL1        0.1453
     17 C         138.9820  141.3021  164.8416 C.ar    1  UNL1        0.0384
     18 C         138.2153  140.0675  165.2130 C.ar    1  UNL1        0.0145
     19 C         138.4065  139.4439  166.5638 C.ar    1  UNL1        0.0579
     20 CL        137.6398  138.2093  166.9351 Cl      1  UNL1       -0.0822
     21 C         139.3644  140.0548  167.5431 C.ar    1  UNL1        0.0145
     22 C         140.1311  141.2894  167.1718 C.ar    1  UNL1        0.0384
@<TRIPOS>BOND
     1    12    13    1
     2    13    11    1
     3    11     1    1
     4     1     2   ar
     5     2     3   ar
     6     3     4   ar
     7     4     7    1
     8     7     8    1
     9     7     9    1
    10     7    10    1
    11     4     5   ar
    12     5     6   ar
    13     6    15    1
    14    15    16    1
    15    16    17   ar
    16    17    18   ar
    17    18    19   ar
    18    19    20    1
    19    19    21   ar
    20    21    22   ar
    21     6     1   ar
    22    22    16   ar
    23    13    14    1
@<TRIPOS>MOLECULE
*****
 22 23 0 0 0
SMALL
GASTEIGER

@<TRIPOS>ATOM
      1 C         142.8218  144.0792  163.8261 C.ar    1  UNL1        0.0282
      2 C         142.0138  145.2565  163.3664 C.ar    1  UNL1        0.0000
      3 C         140.5505  145.3329  163.6869 C.ar    1  UNL1        0.0038
      4 C         139.8950  144.2320  164.4669 C.ar    1  UNL1        0.0744
      5 C         140.7029  143.0548  164.9265 C.ar    1  UNL1        0.0411
      6 C         142.1663  142.9784  164.6061 C.ar    1  UNL1        0.1425
      7 C         138.4316  144.3085  164.7873 C.3     1  UNL1        0.4187
      8 F         136.9682  144.3849  165.1078 F       1  UNL1       -0.1659
      9 F         138.1519  143.2495  163.7625 F       1  UNL1       -0.1659
     10 F         138.7113  145.3674  165.8122 F       1  UNL1       -0.1659
     11 C         144.2852  144.0028  163.5056 C.3     1  UNL1        0.0987
     12 C         145.7142  141.8467  163.2628 C.3     1  UNL1        0.0861
     13 N         144.8102  142.8807  162.6599 N.3     1  UNL1       -0.2925
     14 H         143.9984  142.3841  162.2927 H       1  UNL1        0.1236
     15 O         142.9743  141.8011  165.0658 O.3     1  UNL1       -0.4538
     16 C         142.9249  141.3725  166.5024 C.ar    1  UNL1        0.1453
     17 C         142.6177  139.9458  166.8493 C.ar    1  UNL1        0.0384
     18 C         142.5683  139.5173  168.2859 C.ar    1  UNL1        0.0145
     19 C         142.8261  140.5153  169.3756 C.ar    1  UNL1        0.0579
     20 CL        142.7768  140.0867  170.8122 Cl      1  UNL1       -0.0822
     21 C         143.1334  141.9419  169.0287 C.ar    1  UNL1        0.0145
     22 C         143.1827  142.3705  167.5921 C.ar    1  UNL1        0.0384
@<TRIPOS>BOND
     1    12    13    1
     2    13    11    1
     3    11     1    1
     4     1     2   ar
     5     2     3   ar
     6     3     4   ar
     7     4     7    1
     8     7     8    1
     9     7     9    1
    10     7    10    1
    11     4     5   ar
    12     5     6   ar
    13     6    15    1
    14    15    16    1
    15    16    17   ar
    16    17    18   ar
    17    18    19   ar
    18    19    20    1
    19    19    21   ar
    20    21    22   ar
    21     6     1   ar
    22    22    16   ar
    23    13    14    1
@<TRIPOS>MOLECULE
*****
 22 23 0 0 0
SMALL
GASTEIGER

@<TRIPOS>ATOM
      1 C         138.5358  138.5018  162.7020 C.ar    1  UNL1        0.0282
      2 C         139.0699  137.4763  163.6575 C.ar    1  UNL1        0.0000
      3 C         139.0963  137.7645  165.1293 C.ar    1  UNL1        0.0038
      4 C         138.5887  139.0781  165.6456 C.ar    1  UNL1        0.0744
      5 C         138.0546  140.1036  164.6901 C.ar    1  UNL1        0.0411
      6 C         138.0281  139.8154  163.2183 C.ar    1  UNL1        0.1425
      7 C         138.6151  139.3662  167.1174 C.3     1  UNL1        0.4187
      8 F         138.6415  139.6544  168.5893 F       1  UNL1       -0.1659
      9 F         137.2905  138.6803  167.2755 F       1  UNL1       -0.1659
     10 F         139.9397  140.0522  166.9593 F       1  UNL1       -0.1659
     11 C         138.5094  138.2136  161.2301 C.3     1  UNL1        0.0987
     12 C         140.8395  139.2254  160.6854 C.3     1  UNL1        0.0861
     13 N         139.4121  138.9703  160.3014 N.3     1  UNL1       -0.2925
     14 H         139.4315  138.4524  159.4229 H       1  UNL1        0.1236
     15 O         137.4940  140.8410  162.2627 O.3     1  UNL1       -0.4538
     16 C         138.1222  142.2014  162.1943 C.ar    1  UNL1        0.1453
     17 C         139.2063  142.4775  161.1950 C.ar    1  UNL1        0.0384
     18 C         139.8345  143.8378  161.1265 C.ar    1  UNL1        0.0145
     19 C         139.3786  144.9222  162.0573 C.ar    1  UNL1        0.0579
     20 CL        140.0068  146.2825  161.9889 Cl      1  UNL1       -0.0822
     21 C         138.2946  144.6461  163.0566 C.ar    1  UNL1        0.0145
     22 C         137.6663  143.2857  163.1251 C.ar    1  UNL1        0.0384
@<TRIPOS>BOND
     1    12    13    1
     2    13    11    1
     3    11     1    1
     4     1     2   ar
     5     2     3   ar
     6     3     4   ar
     7     4     7    1
     8     7     8    1
     9     7     9    1
    10     7    10    1
    11     4     5   ar
    12     5     6   ar
    13     6    15    1
    14    15    16    1
    15    16    17   ar
    16    17    18   ar
    17    18    19   ar
    18    19    20    1
    19    19    21   ar
    20    21    22   ar
    21     6     1   ar
    22    22    16   ar
    23    13    14    1
@<TRIPOS>MOLECULE
*****
 22 23 0 0 0
SMALL
GASTEIGER

@<TRIPOS>ATOM
      1 C         140.9793  140.1073  166.7258 C.ar    1  UNL1        0.0282
      2 C         142.1485  139.6468  167.5449 C.ar    1  UNL1        0.0000
      3 C         142.7346  140.5499  168.5895 C.ar    1  UNL1        0.0038
      4 C         142.1514  141.9133  168.8149 C.ar    1  UNL1        0.0744
      5 C         140.9822  142.3737  167.9959 C.ar    1  UNL1        0.0411
      6 C         140.3962  141.4707  166.9513 C.ar    1  UNL1        0.1425
      7 C         142.7375  142.8163  169.8595 C.3     1  UNL1        0.4187
      8 F         143.3236  143.7193  170.9040 F       1  UNL1       -0.1659
      9 F         141.4930  143.6533  169.8342 F       1  UNL1       -0.1659
     10 F         143.9820  141.9793  169.8848 F       1  UNL1       -0.1659
     11 C         140.3932  139.2042  165.6813 C.3     1  UNL1        0.0987
     12 C         138.0356  138.6049  166.5936 C.3     1  UNL1        0.0861
     13 N         138.9063  139.1389  165.4951 N.3     1  UNL1       -0.2925
     14 H         138.5912  140.0903  165.3057 H       1  UNL1        0.1236
     15 O         139.2269  141.9312  166.1323 O.3     1  UNL1       -0.4538
     16 C         139.4106  143.0028  165.0989 C.ar    1  UNL1        0.1453
     17 C         140.7785  143.5542  164.8252 C.ar    1  UNL1        0.0384
     18 C         140.9623  144.6258  163.7919 C.ar    1  UNL1        0.0145
     19 C         139.7782  145.1461  163.0321 C.ar    1  UNL1        0.0579
     20 CL        139.9619  146.2177  161.9988 Cl      1  UNL1       -0.0822
     21 C         138.4103  144.5947  163.3058 C.ar    1  UNL1        0.0145
     22 C         138.2265  143.5231  164.3392 C.ar    1  UNL1        0.0384
@<TRIPOS>BOND
     1    12    13    1
     2    13    11    1
     3    11     1    1
     4     1     2   ar
     5     2     3   ar
     6     3     4   ar
     7     4     7    1
     8     7     8    1
     9     7     9    1
    10     7    10    1
    11     4     5   ar
    12     5     6   ar
    13     6    15    1
    14    15    16    1
    15    16    17   ar
    16    17    18   ar
    17    18    19   ar
    18    19    20    1
    19    19    21   ar
    20    21    22   ar
    21     6     1   ar
    22    22    16   ar
    23    13    14    1
@<TRIPOS>MOLECULE
*****
 22 23 0 0 0
SMALL
GASTEIGER

@<TRIPOS>ATOM
      1 C         140.5193  139.7566  163.9714 C.ar    1  UNL1        0.0282
      2 C         139.9601  138.3898  163.7086 C.ar    1  UNL1        0.0000
      3 C         138.9936  137.7758  164.6775 C.ar    1  UNL1        0.0038
      4 C         138.5862  138.5285  165.9092 C.ar    1  UNL1        0.0744
      5 C         139.1454  139.8953  166.1721 C.ar    1  UNL1        0.0411
      6 C         140.1119  140.5094  165.2032 C.ar    1  UNL1        0.1425
      7 C         137.6197  137.9145  166.8782 C.3     1  UNL1        0.4187
      8 F         136.6531  137.3005  167.8471 F       1  UNL1       -0.1659
      9 F         137.7815  136.5872  166.1984 F       1  UNL1       -0.1659
     10 F         137.4579  139.2419  167.5579 F       1  UNL1       -0.1659
     11 C         141.4858  140.3706  163.0025 C.3     1  UNL1        0.0987
     12 C         143.6880  139.7008  164.2074 C.3     1  UNL1        0.0861
     13 N         142.8789  140.7077  163.4447 N.3     1  UNL1       -0.2925
     14 H         143.4084  140.9341  162.6028 H       1  UNL1        0.1236
     15 O         140.6711  141.8762  165.4661 O.3     1  UNL1       -0.4538
     16 C         141.2461  142.2052  166.8119 C.ar    1  UNL1        0.1453
     17 C         142.6935  141.9323  167.0962 C.ar    1  UNL1        0.0384
     18 C         143.2685  142.2612  168.4419 C.ar    1  UNL1        0.0145
     19 C         142.3962  142.8632  169.5034 C.ar    1  UNL1        0.0579
     20 CL        142.9712  143.1921  170.8492 Cl      1  UNL1       -0.0822
     21 C         140.9489  143.1361  169.2192 C.ar    1  UNL1        0.0145
     22 C         140.3738  142.8071  167.8734 C.ar    1  UNL1        0.0384
@<TRIPOS>BOND
     1    12    13    1
     2    13    11    1
     3    11     1    1
     4     1     2   ar
     5     2     3   ar
     6     3     4   ar
     7     4     7    1
     8     7     8    1
     9     7     9    1
    10     7    10    1
    11     4     5   ar
    12     5     6   ar
    13     6    15    1
    14    15    16    1
    15    16    17   ar
    16    17    18   ar
    17    18    19   ar
    18    19    20    1
    19    19    21   ar
    20    21    22   ar
    21     6     1   ar
    22    22    16   ar
    23    13    14    1
@<TRIPOS>MOLECULE
*****
 22 23 0 0 0
SMALL
GASTEIGER

@<TRIPOS>ATOM
      1 C         138.8432  143.1131  163.9952 C.ar    1  UNL1        0.0282
      2 C         137.5768  142.5587  163.4131 C.ar    1  UNL1        0.0000
      3 C         137.4614  141.0901  163.1301 C.ar    1  UNL1        0.0038
      4 C         138.6124  140.1760  163.4293 C.ar    1  UNL1        0.0744
      5 C         139.8788  140.7304  164.0114 C.ar    1  UNL1        0.0411
      6 C         139.9942  142.1989  164.2944 C.ar    1  UNL1        0.1425
      7 C         138.4970  138.7075  163.1463 C.3     1  UNL1        0.4187
      8 F         138.3816  137.2389  162.8633 F       1  UNL1       -0.1659
      9 F         139.4979  138.4207  164.2261 F       1  UNL1       -0.1659
     10 F         137.4961  138.9942  162.0665 F       1  UNL1       -0.1659
     11 C         138.9586  144.5816  164.2782 C.3     1  UNL1        0.0987
     12 C         139.9953  145.7528  162.2037 C.3     1  UNL1        0.0861
     13 N         140.0645  145.3808  163.6552 N.3     1  UNL1       -0.2925
     14 H         140.1291  146.2531  164.1800 H       1  UNL1        0.1236
     15 O         141.2606  142.7533  164.8766 O.3     1  UNL1       -0.4538
     16 C         141.5116  142.6595  166.3524 C.ar    1  UNL1        0.1453
     17 C         142.8858  142.3379  166.8606 C.ar    1  UNL1        0.0384
     18 C         143.1367  142.2441  168.3364 C.ar    1  UNL1        0.0145
     19 C         142.0135  142.4720  169.3042 C.ar    1  UNL1        0.0579
     20 CL        142.2645  142.3782  170.7800 Cl      1  UNL1       -0.0822
     21 C         140.6394  142.7935  168.7961 C.ar    1  UNL1        0.0145
     22 C         140.3884  142.8873  167.3201 C.ar    1  UNL1        0.0384
@<TRIPOS>BOND
     1    12    13    1
     2    13    11    1
     3    11     1    1
     4     1     2   ar
     5     2     3   ar
     6     3     4   ar
     7     4     7    1
     8     7     8    1
     9     7     9    1
    10     7    10    1
    11     4     5   ar
    12     5     6   ar
    13     6    15    1
    14    15    16    1
    15    16    17   ar
    16    17    18   ar
    17    18    19   ar
    18    19    20    1
    19    19    21   ar
    20    21    22   ar
    21     6     1   ar
    22    22    16   ar
    23    13    14    1
@<TRIPOS>MOLECULE
*****
 22 23 0 0 0
SMALL
GASTEIGER

@<TRIPOS>ATOM
      1 C         143.0984  143.8867  164.4462 C.ar    1  UNL1        0.0282
      2 C         142.7501  145.0036  163.5076 C.ar    1  UNL1        0.0000
      3 C         141.3180  145.2538  163.1382 C.ar    1  UNL1        0.0038
      4 C         140.2342  144.3871  163.7074 C.ar    1  UNL1        0.0744
      5 C         140.5825  143.2702  164.6461 C.ar    1  UNL1        0.0411
      6 C         142.0147  143.0200  165.0155 C.ar    1  UNL1        0.1425
      7 C         138.8021  144.6373  163.3380 C.3     1  UNL1        0.4187
      8 F         137.3700  144.8874  162.9686 F       1  UNL1       -0.1659
      9 F         139.0869  144.1941  161.9336 F       1  UNL1       -0.1659
     10 F         138.5173  145.0804  164.7425 F       1  UNL1       -0.1659
     11 C         144.5306  143.6366  164.8156 C.3     1  UNL1        0.0987
     12 C         145.5005  141.9094  163.1346 C.3     1  UNL1        0.0861
     13 N         145.1536  142.3001  164.5406 N.3     1  UNL1       -0.2925
     14 H         146.0192  142.2624  165.0788 H       1  UNL1        0.1236
     15 O         142.3629  141.9030  165.9542 O.3     1  UNL1       -0.4538
     16 C         141.3888  141.4834  167.0148 C.ar    1  UNL1        0.1453
     17 C         141.2325  142.3079  168.2582 C.ar    1  UNL1        0.0384
     18 C         140.2584  141.8882  169.3189 C.ar    1  UNL1        0.0145
     19 C         139.4405  140.6442  169.1361 C.ar    1  UNL1        0.0579
     20 CL        138.4663  140.2246  170.1967 Cl      1  UNL1       -0.0822
     21 C         139.5967  139.8198  167.8928 C.ar    1  UNL1        0.0145
     22 C         140.5709  140.2394  166.8321 C.ar    1  UNL1        0.0384
@<TRIPOS>BOND
     1    12    13    1
     2    13    11    1
     3    11     1    1
     4     1     2   ar
     5     2     3   ar
     6     3     4   ar
     7     4     7    1
     8     7     8    1
     9     7     9    1
    10     7    10    1
    11     4     5   ar
    12     5     6   ar
    13     6    15    1
    14    15    16    1
    15    16    17   ar
    16    17    18   ar
    17    18    19   ar
    18    19    20    1
    19    19    21   ar
    20    21    22   ar
    21     6     1   ar
    22    22    16   ar
    23    13    14    1
@<TRIPOS>MOLECULE
*****
 22 23 0 0 0
SMALL
GASTEIGER

@<TRIPOS>ATOM
      1 C         143.9064  140.0079  163.3826 C.ar    1  UNL1        0.0282
      2 C         145.2129  140.6022  163.8184 C.ar    1  UNL1        0.0000
      3 C         145.2854  142.0482  164.2107 C.ar    1  UNL1        0.0038
      4 C         144.0514  142.8999  164.1671 C.ar    1  UNL1        0.0744
      5 C         142.7450  142.3056  163.7312 C.ar    1  UNL1        0.0411
      6 C         142.6725  140.8596  163.3390 C.ar    1  UNL1        0.1425
      7 C         144.1239  144.3459  164.5593 C.3     1  UNL1        0.4187
      8 F         144.1964  145.7919  164.9516 F       1  UNL1       -0.1659
      9 F         143.3122  144.7139  163.3528 F       1  UNL1       -0.1659
     10 F         144.9357  143.9779  165.7658 F       1  UNL1       -0.1659
     11 C         143.8340  138.5620  162.9903 C.3     1  UNL1        0.0987
     12 C         143.9053  139.0920  160.4479 C.3     1  UNL1        0.0861
     13 N         143.5114  138.1840  161.5751 N.3     1  UNL1       -0.2925
     14 H         143.9614  137.2855  161.4004 H       1  UNL1        0.1236
     15 O         141.3660  140.2654  162.9031 O.3     1  UNL1       -0.4538
     16 C         140.4058  139.7334  163.9254 C.ar    1  UNL1        0.1453
     17 C         140.0987  138.2659  163.9738 C.ar    1  UNL1        0.0384
     18 C         139.1385  137.7340  164.9960 C.ar    1  UNL1        0.0145
     19 C         138.4855  138.6694  165.9699 C.ar    1  UNL1        0.0579
     20 CL        137.5253  138.1374  166.9922 Cl      1  UNL1       -0.0822
     21 C         138.7926  140.1368  165.9216 C.ar    1  UNL1        0.0145
     22 C         139.7528  140.6688  164.8993 C.ar    1  UNL1        0.0384
@<TRIPOS>BOND
     1    12    13    1
     2    13    11    1
     3    11     1    1
     4     1     2   ar
     5     2     3   ar
     6     3     4   ar
     7     4     7    1
     8     7     8    1
     9     7     9    1
    10     7    10    1
    11     4     5   ar
    12     5     6   ar
    13     6    15    1
    14    15    16    1
    15    16    17   ar
    16    17    18   ar
    17    18    19   ar
    18    19    20    1
    19    19    21   ar
    20    21    22   ar
    21     6     1   ar
    22    22    16   ar
    23    13    14    1
