@<TRIPOS>MOLECULE
*****
 36 40 0 0 0
SMALL
GASTEIGER

@<TRIPOS>ATOM
      1 C         139.2351  138.3018  165.1350 C.3     1  UNL1        0.0545
      2 C         138.3472  138.7164  166.2706 C.3     1  UNL1        0.0163
      3 C         139.1870  139.4560  167.2694 C.3     1  UNL1        0.0120
      4 C         139.1573  140.1693  168.5886 C.3     1  UNL1        0.0301
      5 C         140.5459  140.6527  168.8856 C.3     1  UNL1        0.1158
      6 C         141.4338  140.2381  167.7500 C.3     1  UNL1        0.0382
      7 C         140.5940  139.4985  166.7511 C.3     1  UNL1        0.0728
      8 C         140.6237  138.7852  165.4319 C.3     1  UNL1        0.0244
      9 C         142.0009  139.5410  166.2328 C.2     1  UNL1        0.2251
     10 O         143.0051  138.5317  166.7052 O.2     1  UNL1       -0.2749
     11 N         142.4038  140.5928  165.2420 N.am    1  UNL1       -0.2750
     12 C         143.8107  140.6353  164.7237 C.3     1  UNL1        0.1000
     13 C         144.2135  141.6870  163.7330 C.3     1  UNL1        0.0670
     14 C         143.2094  142.6963  163.2606 C.ar    1  UNL1        0.0583
     15 N         143.6123  143.7481  162.2699 N.ar    1  UNL1       -0.2484
     16 C         142.6081  144.7573  161.7975 C.ar    1  UNL1        0.1023
     17 C         141.2011  144.7148  162.3159 C.ar    1  UNL1        0.0902
     18 C         140.7983  143.6630  163.3066 C.ar    1  UNL1        0.0040
     19 C         141.8025  142.6538  163.7790 C.ar    1  UNL1        0.0113
     20 C         141.3997  141.6020  164.7697 C.3     1  UNL1        0.1213
     21 C         140.1970  145.7241  161.8435 C.3     1  UNL1        0.4200
     22 F         139.1929  146.7333  161.3711 F       1  UNL1       -0.1658
     23 F         139.5107  145.6649  163.1760 F       1  UNL1       -0.1658
     24 F         140.8833  145.7832  160.5110 F       1  UNL1       -0.1658
     25 N         138.8092  137.5379  163.9162 N.3     1  UNL1       -0.2975
     26 H         139.3970  136.7055  163.8701 H       1  UNL1        0.1232
     27 C         140.1035  138.0489  161.7222 C.3     1  UNL1        0.1591
     28 C         140.1647  138.6976  160.3712 C.3     1  UNL1        0.1729
     29 O         138.9928  139.4840  159.8630 O.3     1  UNL1       -0.3511
     30 C         137.7597  139.6217  160.7059 C.3     1  UNL1        0.1437
     31 C         137.6985  138.9730  162.0570 C.3     1  UNL1        0.0503
     32 C         138.8704  138.1866  162.5651 C.3     1  UNL1        0.0865
     33 C         142.5994  137.9372  162.4350 C.3     1  UNL1        0.1742
     34 O         141.2754  137.2626  162.2304 O.3     1  UNL1       -0.3496
     35 O         140.9717  141.4166  170.1043 O.3     1  UNL1       -0.3536
     36 C         140.0912  142.4975  170.6576 C.3     1  UNL1        0.1740
@<TRIPOS>BOND
     1    33    34    1
     2    34    27    1
     3    27    28    1
     4    28    29    1
     5    29    30    1
     6    30    31    1
     7    31    32    1
     8    32    25    1
     9     1    25    1
    10     1     2    1
    11     3     2    1
    12     3     4    1
    13     4     5    1
    14     5    35    1
    15    35    36    1
    16     5     6    1
    17     6     7    1
    18     7     9    1
    19     9    10    2
    20     9    11   am
    21    11    12    1
    22    12    13    1
    23    13    14    1
    24    14    15   ar
    25    15    16   ar
    26    16    17   ar
    27    17    21    1
    28    21    22    1
    29    21    23    1
    30    21    24    1
    31    17    18   ar
    32    18    19   ar
    33    19    20    1
    34     7     8    1
    35    32    27    1
    36     8     1    1
    37     7     3    1
    38    20    11    1
    39    19    14   ar
    40    25    26    1
@<TRIPOS>MOLECULE
*****
 36 40 0 0 0
SMALL
GASTEIGER

@<TRIPOS>ATOM
      1 C         139.2605  138.9104  166.1194 C.3     1  UNL1        0.0545
      2 C         138.5445  139.4064  167.3406 C.3     1  UNL1        0.0163
      3 C         139.5522  140.0712  168.2308 C.3     1  UNL1        0.0120
      4 C         139.7326  140.7886  169.5357 C.3     1  UNL1        0.0301
      5 C         141.1829  141.1468  169.6711 C.3     1  UNL1        0.1158
      6 C         141.8989  140.6508  168.4499 C.3     1  UNL1        0.0382
      7 C         140.8911  139.9860  167.5597 C.3     1  UNL1        0.0728
      8 C         140.7108  139.2686  166.2548 C.3     1  UNL1        0.0244
      9 C         142.2299  139.9009  166.8887 C.2     1  UNL1        0.2251
     10 O         143.2439  138.9020  167.3620 O.2     1  UNL1       -0.2749
     11 N         142.5547  140.8147  165.7443 N.am    1  UNL1       -0.2750
     12 C         143.8935  140.7296  165.0732 C.3     1  UNL1        0.1000
     13 C         144.2183  141.6433  163.9289 C.3     1  UNL1        0.0670
     14 C         143.2043  142.6422  163.4556 C.ar    1  UNL1        0.0583
     15 N         143.5291  143.5560  162.3112 N.ar    1  UNL1       -0.2484
     16 C         142.5151  144.5549  161.8380 C.ar    1  UNL1        0.1023
     17 C         141.1763  144.6400  162.5091 C.ar    1  UNL1        0.0902
     18 C         140.8515  143.7262  163.6534 C.ar    1  UNL1        0.0040
     19 C         141.8655  142.7273  164.1267 C.ar    1  UNL1        0.0113
     20 C         141.5407  141.8136  165.2710 C.3     1  UNL1        0.1213
     21 C         140.1622  145.6389  162.0358 C.3     1  UNL1        0.4200
     22 F         139.1482  146.6377  161.5625 F       1  UNL1       -0.1658
     23 F         139.4192  145.4984  163.3313 F       1  UNL1       -0.1658
     24 F         140.9052  145.7793  160.7403 F       1  UNL1       -0.1658
     25 N         138.6358  138.1837  164.9653 N.3     1  UNL1       -0.2975
     26 H         138.8598  137.1956  165.0835 H       1  UNL1        0.1232
     27 C         138.4824  139.8101  162.9451 C.3     1  UNL1        0.1591
     28 C         138.8567  140.1737  161.5388 C.3     1  UNL1        0.1729
     29 O         139.7586  139.2745  160.7464 O.3     1  UNL1       -0.3511
     30 C         140.2863  138.0117  161.3602 C.3     1  UNL1        0.1437
     31 C         139.9121  137.6480  162.7666 C.3     1  UNL1        0.0503
     32 C         139.0101  138.5473  163.5590 C.3     1  UNL1        0.0865
     33 C         137.3969  142.1397  163.3251 C.3     1  UNL1        0.1742
     34 O         137.5805  140.7092  163.7375 O.3     1  UNL1       -0.3496
     35 O         141.8075  141.8735  170.8252 O.3     1  UNL1       -0.3536
     36 C         142.8347  142.9374  170.5742 C.3     1  UNL1        0.1740
@<TRIPOS>BOND
     1    33    34    1
     2    34    27    1
     3    27    28    1
     4    28    29    1
     5    29    30    1
     6    30    31    1
     7    31    32    1
     8    32    25    1
     9     1    25    1
    10     1     2    1
    11     3     2    1
    12     3     4    1
    13     4     5    1
    14     5    35    1
    15    35    36    1
    16     5     6    1
    17     6     7    1
    18     7     9    1
    19     9    10    2
    20     9    11   am
    21    11    12    1
    22    12    13    1
    23    13    14    1
    24    14    15   ar
    25    15    16   ar
    26    16    17   ar
    27    17    21    1
    28    21    22    1
    29    21    23    1
    30    21    24    1
    31    17    18   ar
    32    18    19   ar
    33    19    20    1
    34     7     8    1
    35    32    27    1
    36     8     1    1
    37     7     3    1
    38    20    11    1
    39    19    14   ar
    40    25    26    1
@<TRIPOS>MOLECULE
*****
 36 40 0 0 0
SMALL
GASTEIGER

@<TRIPOS>ATOM
      1 C         139.3135  139.4953  167.6157 C.3     1  UNL1        0.0545
      2 C         138.3228  138.8151  166.7180 C.3     1  UNL1        0.0163
      3 C         139.0326  138.4256  165.4553 C.3     1  UNL1        0.0120
      4 C         138.8591  137.7645  164.1201 C.3     1  UNL1        0.0301
      5 C         140.1812  137.7954  163.4122 C.3     1  UNL1        0.1158
      6 C         141.1719  138.4756  164.3099 C.3     1  UNL1        0.0382
      7 C         140.4621  138.8651  165.5726 C.3     1  UNL1        0.0728
      8 C         140.6356  139.5262  166.9078 C.3     1  UNL1        0.0244
      9 C         141.8914  139.3046  165.6900 C.2     1  UNL1        0.2251
     10 O         142.8906  138.4288  166.3861 O.2     1  UNL1       -0.2749
     11 N         142.3216  140.6199  165.1112 N.am    1  UNL1       -0.2750
     12 C         143.7509  141.0594  165.2285 C.3     1  UNL1        0.1000
     13 C         144.1810  142.3747  164.6497 C.3     1  UNL1        0.0670
     14 C         143.1818  143.2504  163.9537 C.ar    1  UNL1        0.0583
     15 N         143.6120  144.5658  163.3749 N.ar    1  UNL1       -0.2484
     16 C         142.6128  145.4416  162.6788 C.ar    1  UNL1        0.1023
     17 C         141.1833  145.0020  162.5615 C.ar    1  UNL1        0.0902
     18 C         140.7532  143.6868  163.1402 C.ar    1  UNL1        0.0040
     19 C         141.7525  142.8110  163.8363 C.ar    1  UNL1        0.0113
     20 C         141.3223  141.4957  164.4151 C.3     1  UNL1        0.1213
     21 C         140.1841  145.8778  161.8654 C.3     1  UNL1        0.4200
     22 F         139.1849  146.7536  161.1693 F       1  UNL1       -0.1658
     23 F         139.3291  145.8819  163.0978 F       1  UNL1       -0.1658
     24 F         141.0391  145.8738  160.6329 F       1  UNL1       -0.1658
     25 N         139.0316  140.0476  168.9816 N.3     1  UNL1       -0.2975
     26 H         138.1331  140.5272  168.9256 H       1  UNL1        0.1232
     27 C         141.1817  140.4860  170.3725 C.3     1  UNL1        0.1591
     28 C         142.1452  141.4444  171.0075 C.3     1  UNL1        0.1729
     29 O         141.9221  142.9227  170.8865 O.3     1  UNL1       -0.3511
     30 C         140.7354  143.4428  170.1305 C.3     1  UNL1        0.1437
     31 C         139.7719  142.4844  169.4955 C.3     1  UNL1        0.0503
     32 C         139.9951  141.0060  169.6166 C.3     1  UNL1        0.0865
     33 C         142.7299  138.4156  170.1143 C.3     1  UNL1        0.1742
     34 O         141.4048  139.0077  170.4935 O.3     1  UNL1       -0.3496
     35 O         140.4631  137.2431  162.0463 O.3     1  UNL1       -0.3536
     36 C         141.1121  138.1080  161.0068 C.3     1  UNL1        0.1740
@<TRIPOS>BOND
     1    33    34    1
     2    34    27    1
     3    27    28    1
     4    28    29    1
     5    29    30    1
     6    30    31    1
     7    31    32    1
     8    32    25    1
     9     1    25    1
    10     1     2    1
    11     3     2    1
    12     3     4    1
    13     4     5    1
    14     5    35    1
    15    35    36    1
    16     5     6    1
    17     6     7    1
    18     7     9    1
    19     9    10    2
    20     9    11   am
    21    11    12    1
    22    12    13    1
    23    13    14    1
    24    14    15   ar
    25    15    16   ar
    26    16    17   ar
    27    17    21    1
    28    21    22    1
    29    21    23    1
    30    21    24    1
    31    17    18   ar
    32    18    19   ar
    33    19    20    1
    34     7     8    1
    35    32    27    1
    36     8     1    1
    37     7     3    1
    38    20    11    1
    39    19    14   ar
    40    25    26    1
@<TRIPOS>MOLECULE
*****
 36 40 0 0 0
SMALL
GASTEIGER

@<TRIPOS>ATOM
      1 C         140.1471  137.8230  164.1384 C.3     1  UNL1        0.0545
      2 C         138.8306  137.8657  164.8560 C.3     1  UNL1        0.0163
      3 C         139.0171  138.6504  166.1207 C.3     1  UNL1        0.0120
      4 C         138.3188  139.1617  167.3457 C.3     1  UNL1        0.0301
      5 C         139.3191  139.9201  168.1670 C.3     1  UNL1        0.1158
      6 C         140.6356  139.8774  167.4494 C.3     1  UNL1        0.0382
      7 C         140.4490  139.0927  166.1847 C.3     1  UNL1        0.0728
      8 C         141.1474  138.5814  164.9597 C.3     1  UNL1        0.0244
      9 C         141.8809  139.5351  166.2488 C.2     1  UNL1        0.2251
     10 O         142.8880  138.7104  166.9943 O.2     1  UNL1       -0.2749
     11 N         142.3057  140.8020  165.5673 N.am    1  UNL1       -0.2750
     12 C         143.7375  141.2444  165.6313 C.3     1  UNL1        0.1000
     13 C         144.1623  142.5113  164.9499 C.3     1  UNL1        0.0670
     14 C         143.1552  143.3359  164.2044 C.ar    1  UNL1        0.0583
     15 N         143.5800  144.6029  163.5229 N.ar    1  UNL1       -0.2484
     16 C         142.5729  145.4275  162.7774 C.ar    1  UNL1        0.1023
     17 C         141.1410  144.9851  162.7134 C.ar    1  UNL1        0.0902
     18 C         140.7162  143.7182  163.3948 C.ar    1  UNL1        0.0040
     19 C         141.7233  142.8936  164.1403 C.ar    1  UNL1        0.0113
     20 C         141.2986  141.6267  164.8218 C.3     1  UNL1        0.1213
     21 C         140.1339  145.8097  161.9679 C.3     1  UNL1        0.4200
     22 F         139.1268  146.6343  161.2224 F       1  UNL1       -0.1658
     23 F         139.2126  145.7536  163.1503 F       1  UNL1       -0.1658
     24 F         141.0551  145.8658  160.7854 F       1  UNL1       -0.1658
     25 N         140.4162  137.1416  162.8294 N.3     1  UNL1       -0.2975
     26 H         141.2700  136.5969  162.9511 H       1  UNL1        0.1232
     27 C         141.9678  138.3999  161.1684 C.3     1  UNL1        0.1591
     28 C         142.1479  139.2147  159.9219 C.3     1  UNL1        0.1729
     29 O         140.9563  139.5858  159.0899 O.3     1  UNL1       -0.3511
     30 C         139.5846  139.1422  159.5044 C.3     1  UNL1        0.1437
     31 C         139.4045  138.3275  160.7509 C.3     1  UNL1        0.0503
     32 C         140.5962  137.9564  161.5829 C.3     1  UNL1        0.0865
     33 C         144.0355  139.1016  162.5765 C.3     1  UNL1        0.1742
     34 O         143.1594  138.0288  162.0004 O.3     1  UNL1       -0.3496
     35 O         139.0500  140.6014  169.4760 O.3     1  UNL1       -0.3536
     36 C         139.9116  141.7478  169.9158 C.3     1  UNL1        0.1740
@<TRIPOS>BOND
     1    33    34    1
     2    34    27    1
     3    27    28    1
     4    28    29    1
     5    29    30    1
     6    30    31    1
     7    31    32    1
     8    32    25    1
     9     1    25    1
    10     1     2    1
    11     3     2    1
    12     3     4    1
    13     4     5    1
    14     5    35    1
    15    35    36    1
    16     5     6    1
    17     6     7    1
    18     7     9    1
    19     9    10    2
    20     9    11   am
    21    11    12    1
    22    12    13    1
    23    13    14    1
    24    14    15   ar
    25    15    16   ar
    26    16    17   ar
    27    17    21    1
    28    21    22    1
    29    21    23    1
    30    21    24    1
    31    17    18   ar
    32    18    19   ar
    33    19    20    1
    34     7     8    1
    35    32    27    1
    36     8     1    1
    37     7     3    1
    38    20    11    1
    39    19    14   ar
    40    25    26    1
@<TRIPOS>MOLECULE
*****
 36 40 0 0 0
SMALL
GASTEIGER

@<TRIPOS>ATOM
      1 C         138.9291  140.1996  165.4329 C.3     1  UNL1        0.0545
      2 C         139.7480  139.3606  166.3687 C.3     1  UNL1        0.0163
      3 C         140.7292  140.2604  167.0597 C.3     1  UNL1        0.0120
      4 C         141.8418  140.2980  168.0651 C.3     1  UNL1        0.0301
      5 C         142.3169  141.7163  168.1779 C.3     1  UNL1        0.1158
      6 C         141.4981  142.5552  167.2422 C.3     1  UNL1        0.0382
      7 C         140.5168  141.6555  166.5511 C.3     1  UNL1        0.0728
      8 C         139.4043  141.6179  165.5457 C.3     1  UNL1        0.0244
      9 C         140.3044  143.0505  166.0425 C.2     1  UNL1        0.2251
     10 O         139.6271  144.0700  166.9096 O.2     1  UNL1       -0.2749
     11 N         140.7693  143.4261  164.6667 N.am    1  UNL1       -0.2750
     12 C         140.5569  144.8212  164.1580 C.3     1  UNL1        0.1000
     13 C         141.0218  145.1967  162.7823 C.3     1  UNL1        0.0670
     14 C         141.6992  144.1773  161.9151 C.ar    1  UNL1        0.0583
     15 N         142.1641  144.5529  160.5393 N.ar    1  UNL1       -0.2484
     16 C         142.8414  143.5335  159.6722 C.ar    1  UNL1        0.1023
     17 C         143.0538  142.1384  160.1809 C.ar    1  UNL1        0.0902
     18 C         142.5889  141.7628  161.5566 C.ar    1  UNL1        0.0040
     19 C         141.9116  142.7823  162.4238 C.ar    1  UNL1        0.0113
     20 C         141.4467  142.4067  163.7995 C.3     1  UNL1        0.1213
     21 C         143.7312  141.1189  159.3137 C.3     1  UNL1        0.4200
     22 F         144.4085  140.0995  158.4466 F       1  UNL1       -0.1658
     23 F         143.2203  141.8202  158.0902 F       1  UNL1       -0.1658
     24 F         144.2421  140.4176  160.5373 F       1  UNL1       -0.1658
     25 N         137.8283  139.7068  164.5410 N.3     1  UNL1       -0.2975
     26 H         137.5281  138.8061  164.9139 H       1  UNL1        0.1232
     27 C         137.6977  140.5731  162.0951 C.3     1  UNL1        0.1591
     28 C         137.9522  140.3723  160.6306 C.3     1  UNL1        0.1729
     29 O         138.5919  139.1046  160.1474 O.3     1  UNL1       -0.3511
     30 C         138.9771  138.0375  161.1287 C.3     1  UNL1        0.1437
     31 C         138.7226  138.2382  162.5933 C.3     1  UNL1        0.0503
     32 C         138.0828  139.5061  163.0765 C.3     1  UNL1        0.0865
     33 C         137.8048  143.1388  162.4900 C.3     1  UNL1        0.1742
     34 O         137.0579  141.8408  162.5783 O.3     1  UNL1       -0.3496
     35 O         143.4178  142.2090  169.0698 O.3     1  UNL1       -0.3536
     36 C         143.0865  142.8669  170.3765 C.3     1  UNL1        0.1740
@<TRIPOS>BOND
     1    33    34    1
     2    34    27    1
     3    27    28    1
     4    28    29    1
     5    29    30    1
     6    30    31    1
     7    31    32    1
     8    32    25    1
     9     1    25    1
    10     1     2    1
    11     3     2    1
    12     3     4    1
    13     4     5    1
    14     5    35    1
    15    35    36    1
    16     5     6    1
    17     6     7    1
    18     7     9    1
    19     9    10    2
    20     9    11   am
    21    11    12    1
    22    12    13    1
    23    13    14    1
    24    14    15   ar
    25    15    16   ar
    26    16    17   ar
    27    17    21    1
    28    21    22    1
    29    21    23    1
    30    21    24    1
    31    17    18   ar
    32    18    19   ar
    33    19    20    1
    34     7     8    1
    35    32    27    1
    36     8     1    1
    37     7     3    1
    38    20    11    1
    39    19    14   ar
    40    25    26    1
@<TRIPOS>MOLECULE
*****
 36 40 0 0 0
SMALL
GASTEIGER

@<TRIPOS>ATOM
      1 C         142.3707  139.4141  166.8833 C.3     1  UNL1        0.0545
      2 C         142.8450  138.3328  165.9583 C.3     1  UNL1        0.0163
      3 C         141.8328  138.1842  164.8613 C.3     1  UNL1        0.0120
      4 C         141.5004  137.4241  163.6116 C.3     1  UNL1        0.0301
      5 C         140.1950  137.9439  163.0864 C.3     1  UNL1        0.1158
      6 C         139.7207  139.0252  164.0114 C.3     1  UNL1        0.0382
      7 C         140.7329  139.1738  165.1084 C.3     1  UNL1        0.0728
      8 C         141.0653  139.9338  166.3581 C.3     1  UNL1        0.0244
      9 C         139.6330  140.1632  165.3555 C.2     1  UNL1        0.2251
     10 O         138.6842  139.9599  166.4994 O.2     1  UNL1       -0.2749
     11 N         139.4817  141.3561  164.4586 N.am    1  UNL1       -0.2750
     12 C         138.3818  142.3456  164.7057 C.3     1  UNL1        0.1000
     13 C         138.2307  143.5384  163.8089 C.3     1  UNL1        0.0670
     14 C         139.1794  143.7417  162.6650 C.ar    1  UNL1        0.0583
     15 N         139.0282  144.9345  161.7681 N.ar    1  UNL1       -0.2484
     16 C         139.9769  145.1378  160.6242 C.ar    1  UNL1        0.1023
     17 C         141.0768  144.1483  160.3771 C.ar    1  UNL1        0.0902
     18 C         141.2280  142.9555  161.2739 C.ar    1  UNL1        0.0040
     19 C         140.2793  142.7522  162.4179 C.ar    1  UNL1        0.0113
     20 C         140.4305  141.5594  163.3147 C.3     1  UNL1        0.1213
     21 C         142.0256  144.3516  159.2331 C.3     1  UNL1        0.4200
     22 F         142.9743  144.5549  158.0892 F       1  UNL1       -0.1658
     23 F         141.5734  145.7766  159.1114 F       1  UNL1       -0.1658
     24 F         142.4778  142.9266  159.3549 F       1  UNL1       -0.1658
     25 N         143.0776  139.8919  168.1171 N.3     1  UNL1       -0.2975
     26 H         143.6299  139.1071  168.4626 H       1  UNL1        0.1232
     27 C         142.6078  141.7531  169.8678 C.3     1  UNL1        0.1591
     28 C         141.8168  142.2717  171.0321 C.3     1  UNL1        0.1729
     29 O         140.7047  141.4475  171.6099 O.3     1  UNL1       -0.3511
     30 C         140.3835  140.1047  171.0234 C.3     1  UNL1        0.1437
     31 C         141.1744  139.5862  169.8591 C.3     1  UNL1        0.0503
     32 C         142.2866  140.4104  169.2814 C.3     1  UNL1        0.0865
     33 C         144.8801  142.9804  170.1511 C.3     1  UNL1        0.1742
     34 O         143.7199  142.5773  169.2900 O.3     1  UNL1       -0.3496
     35 O         139.4881  137.4661  161.8526 O.3     1  UNL1       -0.3536
     36 C         139.0413  138.4526  160.8148 C.3     1  UNL1        0.1740
@<TRIPOS>BOND
     1    33    34    1
     2    34    27    1
     3    27    28    1
     4    28    29    1
     5    29    30    1
     6    30    31    1
     7    31    32    1
     8    32    25    1
     9     1    25    1
    10     1     2    1
    11     3     2    1
    12     3     4    1
    13     4     5    1
    14     5    35    1
    15    35    36    1
    16     5     6    1
    17     6     7    1
    18     7     9    1
    19     9    10    2
    20     9    11   am
    21    11    12    1
    22    12    13    1
    23    13    14    1
    24    14    15   ar
    25    15    16   ar
    26    16    17   ar
    27    17    21    1
    28    21    22    1
    29    21    23    1
    30    21    24    1
    31    17    18   ar
    32    18    19   ar
    33    19    20    1
    34     7     8    1
    35    32    27    1
    36     8     1    1
    37     7     3    1
    38    20    11    1
    39    19    14   ar
    40    25    26    1
@<TRIPOS>MOLECULE
*****
 36 40 0 0 0
SMALL
GASTEIGER

@<TRIPOS>ATOM
      1 C         138.8745  142.8372  165.1554 C.3     1  UNL1        0.0545
      2 C         139.7370  143.6310  166.0912 C.3     1  UNL1        0.0163
      3 C         140.4780  142.6667  166.9693 C.3     1  UNL1        0.0120
      4 C         141.4689  142.5613  168.0904 C.3     1  UNL1        0.0301
      5 C         141.6768  141.1063  168.3901 C.3     1  UNL1        0.1158
      6 C         140.8142  140.3124  167.4543 C.3     1  UNL1        0.0382
      7 C         140.0733  141.2768  166.5762 C.3     1  UNL1        0.0728
      8 C         139.0824  141.3822  165.4551 C.3     1  UNL1        0.0244
      9 C         139.6687  139.8869  166.1830 C.2     1  UNL1        0.2251
     10 O         138.7709  139.0856  167.0784 O.2     1  UNL1       -0.2749
     11 N         140.1619  139.2984  164.8944 N.am    1  UNL1       -0.2750
     12 C         139.7572  137.9086  164.5012 C.3     1  UNL1        0.1000
     13 C         140.2504  137.3202  163.2126 C.3     1  UNL1        0.0670
     14 C         141.1482  138.1215  162.3172 C.ar    1  UNL1        0.0583
     15 N         141.6414  137.5330  161.0286 N.ar    1  UNL1       -0.2484
     16 C         142.5392  138.3344  160.1332 C.ar    1  UNL1        0.1023
     17 C         142.9438  139.7243  160.5264 C.ar    1  UNL1        0.0902
     18 C         142.4506  140.3127  161.8150 C.ar    1  UNL1        0.0040
     19 C         141.5528  139.5113  162.7104 C.ar    1  UNL1        0.0113
     20 C         141.0597  140.0998  163.9990 C.3     1  UNL1        0.1213
     21 C         143.8416  140.5256  159.6310 C.3     1  UNL1        0.4200
     22 F         144.7394  141.3270  158.7356 F       1  UNL1       -0.1658
     23 F         144.2948  141.3350  160.8098 F       1  UNL1       -0.1658
     24 F         143.3884  139.7163  158.4522 F       1  UNL1       -0.1658
     25 N         137.9640  143.3996  164.1043 N.3     1  UNL1       -0.2975
     26 H         137.1519  142.7841  164.0583 H       1  UNL1        0.1232
     27 C         138.0944  142.5640  161.6477 C.3     1  UNL1        0.1591
     28 C         138.5879  142.7356  160.2417 C.3     1  UNL1        0.1729
     29 O         139.4445  143.9144  159.8862 O.3     1  UNL1       -0.3511
     30 C         139.8077  144.9217  160.9367 C.3     1  UNL1        0.1437
     31 C         139.3142  144.7501  162.3427 C.3     1  UNL1        0.0503
     32 C         138.4575  143.5712  162.6983 C.3     1  UNL1        0.0865
     33 C         137.8405  140.0132  162.0711 C.3     1  UNL1        0.1742
     34 O         137.2378  141.3851  162.0033 O.3     1  UNL1       -0.3496
     35 O         142.5873  140.5439  169.4412 O.3     1  UNL1       -0.3536
     36 C         142.4145  139.1274  169.9033 C.3     1  UNL1        0.1740
@<TRIPOS>BOND
     1    33    34    1
     2    34    27    1
     3    27    28    1
     4    28    29    1
     5    29    30    1
     6    30    31    1
     7    31    32    1
     8    32    25    1
     9     1    25    1
    10     1     2    1
    11     3     2    1
    12     3     4    1
    13     4     5    1
    14     5    35    1
    15    35    36    1
    16     5     6    1
    17     6     7    1
    18     7     9    1
    19     9    10    2
    20     9    11   am
    21    11    12    1
    22    12    13    1
    23    13    14    1
    24    14    15   ar
    25    15    16   ar
    26    16    17   ar
    27    17    21    1
    28    21    22    1
    29    21    23    1
    30    21    24    1
    31    17    18   ar
    32    18    19   ar
    33    19    20    1
    34     7     8    1
    35    32    27    1
    36     8     1    1
    37     7     3    1
    38    20    11    1
    39    19    14   ar
    40    25    26    1
@<TRIPOS>MOLECULE
*****
 36 40 0 0 0
SMALL
GASTEIGER

@<TRIPOS>ATOM
      1 C         138.7077  141.8955  159.7757 C.3     1  UNL1        0.0545
      2 C         138.1919  140.5619  159.3223 C.3     1  UNL1        0.0163
      3 C         139.2796  139.8850  158.5421 C.3     1  UNL1        0.0120
      4 C         139.6331  138.6425  157.7798 C.3     1  UNL1        0.0301
      5 C         141.0396  138.7899  157.2798 C.3     1  UNL1        0.1158
      6 C         141.5554  140.1234  157.7331 C.3     1  UNL1        0.0382
      7 C         140.4677  140.8003  158.5133 C.3     1  UNL1        0.0728
      8 C         140.1142  142.0428  159.2757 C.3     1  UNL1        0.0244
      9 C         141.6557  141.7155  158.4845 C.2     1  UNL1        0.2251
     10 O         141.8440  142.6642  157.3380 O.2     1  UNL1       -0.2749
     11 N         142.6556  141.6821  159.6022 N.am    1  UNL1       -0.2750
     12 C         143.8436  142.5973  159.5734 C.3     1  UNL1        0.1000
     13 C         144.8434  142.5638  160.6911 C.3     1  UNL1        0.0670
     14 C         144.6551  141.6151  161.8376 C.ar    1  UNL1        0.0583
     15 N         145.6549  141.5817  162.9554 N.ar    1  UNL1       -0.2484
     16 C         145.4667  140.6329  164.1019 C.ar    1  UNL1        0.1023
     17 C         144.2785  139.7177  164.1307 C.ar    1  UNL1        0.0902
     18 C         143.2788  139.7512  163.0130 C.ar    1  UNL1        0.0040
     19 C         143.4671  140.6999  161.8665 C.ar    1  UNL1        0.0113
     20 C         142.4673  140.7334  160.7488 C.3     1  UNL1        0.1213
     21 C         144.0903  138.7690  165.2772 C.3     1  UNL1        0.4200
     22 F         143.9020  137.8203  166.4237 F       1  UNL1       -0.1658
     23 F         142.6034  138.8416  165.0932 F       1  UNL1       -0.1658
     24 F         145.5772  138.6963  165.4612 F       1  UNL1       -0.1658
     25 N         137.9500  142.9046  160.5866 N.3     1  UNL1       -0.2975
     26 H         138.2510  143.8253  160.2670 H       1  UNL1        0.1232
     27 C         138.3185  144.1909  162.8137 C.3     1  UNL1        0.1591
     28 C         138.4358  144.1920  164.3091 C.3     1  UNL1        0.1729
     29 O         138.3019  142.9080  165.0729 O.3     1  UNL1       -0.3511
     30 C         138.0507  141.6228  164.3412 C.3     1  UNL1        0.1437
     31 C         137.9334  141.6217  162.8458 C.3     1  UNL1        0.0503
     32 C         138.0673  142.9058  162.0820 C.3     1  UNL1        0.0865
     33 C         139.8128  145.9998  161.6979 C.3     1  UNL1        0.1742
     34 O         138.4524  145.4749  162.0499 O.3     1  UNL1       -0.3496
     35 O         141.7973  137.7807  156.4688 O.3     1  UNL1       -0.3536
     36 C         142.6219  136.7329  157.1558 C.3     1  UNL1        0.1740
@<TRIPOS>BOND
     1    33    34    1
     2    34    27    1
     3    27    28    1
     4    28    29    1
     5    29    30    1
     6    30    31    1
     7    31    32    1
     8    32    25    1
     9     1    25    1
    10     1     2    1
    11     3     2    1
    12     3     4    1
    13     4     5    1
    14     5    35    1
    15    35    36    1
    16     5     6    1
    17     6     7    1
    18     7     9    1
    19     9    10    2
    20     9    11   am
    21    11    12    1
    22    12    13    1
    23    13    14    1
    24    14    15   ar
    25    15    16   ar
    26    16    17   ar
    27    17    21    1
    28    21    22    1
    29    21    23    1
    30    21    24    1
    31    17    18   ar
    32    18    19   ar
    33    19    20    1
    34     7     8    1
    35    32    27    1
    36     8     1    1
    37     7     3    1
    38    20    11    1
    39    19    14   ar
    40    25    26    1
@<TRIPOS>MOLECULE
*****
 36 40 0 0 0
SMALL
GASTEIGER

@<TRIPOS>ATOM
      1 C         141.9128  138.1317  164.7366 C.3     1  UNL1        0.0545
      2 C         142.9587  138.4600  165.7605 C.3     1  UNL1        0.0163
      3 C         142.3373  139.3625  166.7849 C.3     1  UNL1        0.0120
      4 C         142.5996  140.1232  168.0507 C.3     1  UNL1        0.0301
      5 C         141.3319  140.8228  168.4423 C.3     1  UNL1        0.1158
      6 C         140.2860  140.4945  167.4185 C.3     1  UNL1        0.0382
      7 C         140.9074  139.5920  166.3941 C.3     1  UNL1        0.0728
      8 C         140.6450  138.8313  165.1282 C.3     1  UNL1        0.0244
      9 C         139.4775  139.8214  166.0033 C.2     1  UNL1        0.2251
     10 O         138.3701  139.2926  166.8659 O.2     1  UNL1       -0.2749
     11 N         139.1549  140.5797  164.7498 N.am    1  UNL1       -0.2750
     12 C         137.7251  140.8092  164.3590 C.3     1  UNL1        0.1000
     13 C         137.4026  141.5674  163.1057 C.3     1  UNL1        0.0670
     14 C         138.5100  142.0962  162.2431 C.ar    1  UNL1        0.0583
     15 N         138.1874  142.8545  160.9897 N.ar    1  UNL1       -0.2484
     16 C         139.2948  143.3834  160.1271 C.ar    1  UNL1        0.1023
     17 C         140.7248  143.1539  160.5179 C.ar    1  UNL1        0.0902
     18 C         141.0472  142.3956  161.7713 C.ar    1  UNL1        0.0040
     19 C         139.9398  141.8668  162.6339 C.ar    1  UNL1        0.0113
     20 C         140.2623  141.1085  163.8873 C.3     1  UNL1        0.1213
     21 C         141.8321  143.6827  159.6554 C.3     1  UNL1        0.4200
     22 F         142.9395  144.2115  158.7928 F       1  UNL1       -0.1658
     23 F         142.6360  143.9994  160.8815 F       1  UNL1       -0.1658
     24 F         141.0283  143.3660  158.4292 F       1  UNL1       -0.1658
     25 N         142.1016  137.2572  163.5325 N.3     1  UNL1       -0.2975
     26 H         142.9476  136.7111  163.6949 H       1  UNL1        0.1232
     27 C         141.0269  138.0616  161.3081 C.3     1  UNL1        0.1591
     28 C         141.1640  138.6782  159.9475 C.3     1  UNL1        0.1729
     29 O         142.5129  139.1069  159.4509 O.3     1  UNL1       -0.3511
     30 C         143.7248  138.9190  160.3148 C.3     1  UNL1        0.1437
     31 C         143.5876  138.3025  161.6753 C.3     1  UNL1        0.0503
     32 C         142.2387  137.8738  162.1720 C.3     1  UNL1        0.0865
     33 C         138.4557  138.4155  161.4258 C.3     1  UNL1        0.1742
     34 O         139.6781  137.6330  161.8048 O.3     1  UNL1       -0.3496
     35 O         141.1431  141.6973  169.6465 O.3     1  UNL1       -0.3536
     36 C         140.5740  143.0762  169.4902 C.3     1  UNL1        0.1740
@<TRIPOS>BOND
     1    33    34    1
     2    34    27    1
     3    27    28    1
     4    28    29    1
     5    29    30    1
     6    30    31    1
     7    31    32    1
     8    32    25    1
     9     1    25    1
    10     1     2    1
    11     3     2    1
    12     3     4    1
    13     4     5    1
    14     5    35    1
    15    35    36    1
    16     5     6    1
    17     6     7    1
    18     7     9    1
    19     9    10    2
    20     9    11   am
    21    11    12    1
    22    12    13    1
    23    13    14    1
    24    14    15   ar
    25    15    16   ar
    26    16    17   ar
    27    17    21    1
    28    21    22    1
    29    21    23    1
    30    21    24    1
    31    17    18   ar
    32    18    19   ar
    33    19    20    1
    34     7     8    1
    35    32    27    1
    36     8     1    1
    37     7     3    1
    38    20    11    1
    39    19    14   ar
    40    25    26    1
