@<TRIPOS>MOLECULE
*****
 40 44 0 0 0
SMALL
GASTEIGER

@<TRIPOS>ATOM
      1 C         141.6974  139.3618  161.6360 C.ar    1  UNL1        0.0674
      2 C         141.4102  137.8897  161.6532 C.ar    1  UNL1        0.1133
      3 N         140.5272  137.3103  162.7183 N.ar    1  UNL1       -0.2425
      4 C         139.9313  138.2030  163.7662 C.ar    1  UNL1        0.0825
      5 C         139.0482  137.6235  164.8313 C.ar    1  UNL1        0.0230
      6 C         138.4524  138.5162  165.8792 C.ar    1  UNL1        0.0741
      7 C         138.7396  139.9884  165.8619 C.ar    1  UNL1        0.0183
      8 C         139.6226  140.5678  164.7968 C.ar    1  UNL1        0.0463
      9 C         140.2185  139.6751  163.7489 C.ar    1  UNL1        0.0320
     10 C         141.1015  140.2545  162.6838 C.ar    1  UNL1        0.0188
     11 O         146.0494  142.9023  157.6642 O.2     1  UNL1       -0.2523
     12 C         145.2296  141.6798  157.3756 C.2     1  UNL1        0.3074
     13 N         145.2928  141.0367  156.0219 N.am    1  UNL1       -0.2589
     14 C         144.4730  139.8142  155.7333 C.3     1  UNL1        0.1270
     15 C         144.5362  139.1712  154.3796 C.3     1  UNL1        0.1637
     16 O         145.4192  139.7507  153.3145 O.3     1  UNL1       -0.3501
     17 C         146.2391  140.9732  153.6031 C.3     1  UNL1        0.1637
     18 C         146.1758  141.6162  154.9568 C.3     1  UNL1        0.1270
     19 N         144.3465  141.1003  158.4406 N.am    1  UNL1       -0.2605
     20 C         144.2833  141.7433  159.7944 C.3     1  UNL1        0.1164
     21 C         143.4003  141.1639  160.8594 C.3     1  UNL1        0.1124
     22 N         142.5804  139.9413  160.5708 N.pl3   1  UNL1       -0.3028
     23 C         142.6436  139.2983  159.2172 C.3     1  UNL1        0.1124
     24 C         143.5267  139.8778  158.1520 C.3     1  UNL1        0.1164
     25 C         137.5693  137.9368  166.9443 C.3     1  UNL1        0.4187
     26 F         136.6863  137.3574  168.0095 F       1  UNL1       -0.1659
     27 F         137.5280  139.2681  167.6342 F       1  UNL1       -0.1659
     28 F         137.6107  136.6056  166.2544 F       1  UNL1       -0.1659
     29 N         139.9098  142.0400  164.7796 N.pl3   1  UNL1       -0.3290
     30 H         139.3435  142.6458  164.2489 H       1  UNL1        0.1471
     31 C         141.0597  142.5891  165.5709 C.3     1  UNL1        0.1145
     32 C         141.3687  142.0331  166.9294 C.ar    1  UNL1        0.0035
     33 C         142.3013  140.8665  167.0679 C.ar    1  UNL1       -0.0022
     34 C         142.6103  140.3105  168.4263 C.ar    1  UNL1        0.0060
     35 C         141.9868  140.9211  169.6463 C.ar    1  UNL1        0.0752
     36 C         141.0541  142.0878  169.5078 C.ar    1  UNL1        0.2898
     37 C         140.7451  142.6438  168.1493 C.ar    1  UNL1        0.0727
     38 N         140.4306  142.6984  170.7277 N.pl3   1  UNL1        0.0809
     39 O         139.6880  143.9973  170.6201 O.2     1  UNL1        0.0415
     40 O         140.5496  142.0103  172.0551 O.co2   1  UNL1       -0.5760
@<TRIPOS>UNITY_ATOM_ATTR
38 1
charge 1
40 1
charge -1
@<TRIPOS>BOND
     1    11    12    2
     2    12    13   am
     3    13    14    1
     4    14    15    1
     5    15    16    1
     6    16    17    1
     7    17    18    1
     8    12    19   am
     9    19    20    1
    10    20    21    1
    11    21    22    1
    12    22     1    1
    13     1     2   ar
    14     2     3   ar
    15     3     4   ar
    16     4     5   ar
    17     5     6   ar
    18     6    25    1
    19    25    26    1
    20    25    27    1
    21    25    28    1
    22     6     7   ar
    23     7     8   ar
    24     8    29    1
    25    29    31    1
    26    31    32    1
    27    32    33   ar
    28    33    34   ar
    29    34    35   ar
    30    35    36   ar
    31    36    38    1
    32    38    39    2
    33    38    40    1
    34    36    37   ar
    35     8     9   ar
    36     9    10   ar
    37    22    23    1
    38    23    24    1
    39    18    13    1
    40    24    19    1
    41    10     1   ar
    42     9     4   ar
    43    37    32   ar
    44    29    30    1
@<TRIPOS>MOLECULE
*****
 40 44 0 0 0
SMALL
GASTEIGER

@<TRIPOS>ATOM
      1 C         139.7107  142.3841  163.5682 C.ar    1  UNL1        0.0674
      2 C         140.4907  143.4455  164.2857 C.ar    1  UNL1        0.1133
      3 N         140.7560  143.3162  165.7564 N.ar    1  UNL1       -0.2425
      4 C         140.2412  142.1256  166.5095 C.ar    1  UNL1        0.0825
      5 C         140.5066  141.9963  167.9803 C.ar    1  UNL1        0.0230
      6 C         139.9918  140.8057  168.7335 C.ar    1  UNL1        0.0741
      7 C         139.2117  139.7442  168.0159 C.ar    1  UNL1        0.0183
      8 C         138.9464  139.8734  166.5453 C.ar    1  UNL1        0.0463
      9 C         139.4612  141.0641  165.7921 C.ar    1  UNL1        0.0320
     10 C         139.1959  141.1934  164.3214 C.ar    1  UNL1        0.0188
     11 O         137.7494  141.9182  156.9966 O.2     1  UNL1       -0.2523
     12 C         138.6494  142.9008  157.6855 C.2     1  UNL1        0.3074
     13 N         139.2841  144.0125  156.9037 N.am    1  UNL1       -0.2589
     14 C         140.1841  144.9951  157.5926 C.3     1  UNL1        0.1270
     15 C         140.8188  146.1068  156.8107 C.3     1  UNL1        0.1637
     16 O         140.5535  146.2360  155.3401 O.3     1  UNL1       -0.3501
     17 C         139.6534  145.2534  154.6512 C.3     1  UNL1        0.1637
     18 C         139.0188  144.1417  155.4329 C.3     1  UNL1        0.1270
     19 N         138.9147  142.7716  159.1561 N.am    1  UNL1       -0.2605
     20 C         138.2800  141.6599  159.9380 C.3     1  UNL1        0.1164
     21 C         138.5453  141.5307  161.4086 C.3     1  UNL1        0.1124
     22 N         139.4454  142.5133  162.0975 N.pl3   1  UNL1       -0.3028
     23 C         140.0801  143.6250  161.3157 C.3     1  UNL1        0.1124
     24 C         139.8147  143.7542  159.8450 C.3     1  UNL1        0.1164
     25 C         140.2570  140.6764  170.2041 C.3     1  UNL1        0.4187
     26 F         140.5223  140.5472  171.6749 F       1  UNL1       -0.1659
     27 F         139.5156  141.9569  170.4504 F       1  UNL1       -0.1659
     28 F         140.9985  139.3960  169.9578 F       1  UNL1       -0.1659
     29 N         138.1663  138.8120  165.8278 N.pl3   1  UNL1       -0.3290
     30 H         137.1868  138.8828  165.7590 H       1  UNL1        0.1471
     31 C         138.8787  137.6428  165.2151 C.3     1  UNL1        0.1145
     32 C         139.5922  137.8017  163.9052 C.ar    1  UNL1        0.0035
     33 C         138.8110  137.8390  162.6253 C.ar    1  UNL1       -0.0022
     34 C         139.5244  137.9979  161.3155 C.ar    1  UNL1        0.0060
     35 C         141.0192  138.1196  161.2855 C.ar    1  UNL1        0.0752
     36 C         141.8005  138.0824  162.5655 C.ar    1  UNL1        0.2898
     37 C         141.0869  137.9234  163.8753 C.ar    1  UNL1        0.0727
     38 N         143.2952  138.2041  162.5356 N.pl3   1  UNL1        0.0809
     39 O         144.0116  138.9214  163.6412 O.2     1  UNL1        0.0415
     40 O         144.0736  137.6085  161.4001 O.co2   1  UNL1       -0.5760
@<TRIPOS>UNITY_ATOM_ATTR
38 1
charge 1
40 1
charge -1
@<TRIPOS>BOND
     1    11    12    2
     2    12    13   am
     3    13    14    1
     4    14    15    1
     5    15    16    1
     6    16    17    1
     7    17    18    1
     8    12    19   am
     9    19    20    1
    10    20    21    1
    11    21    22    1
    12    22     1    1
    13     1     2   ar
    14     2     3   ar
    15     3     4   ar
    16     4     5   ar
    17     5     6   ar
    18     6    25    1
    19    25    26    1
    20    25    27    1
    21    25    28    1
    22     6     7   ar
    23     7     8   ar
    24     8    29    1
    25    29    31    1
    26    31    32    1
    27    32    33   ar
    28    33    34   ar
    29    34    35   ar
    30    35    36   ar
    31    36    38    1
    32    38    39    2
    33    38    40    1
    34    36    37   ar
    35     8     9   ar
    36     9    10   ar
    37    22    23    1
    38    23    24    1
    39    18    13    1
    40    24    19    1
    41    10     1   ar
    42     9     4   ar
    43    37    32   ar
    44    29    30    1
@<TRIPOS>MOLECULE
*****
 40 44 0 0 0
SMALL
GASTEIGER

@<TRIPOS>ATOM
      1 C         142.6258  143.0826  162.3752 C.ar    1  UNL1        0.0674
      2 C         143.9509  142.6799  162.9514 C.ar    1  UNL1        0.1133
      3 N         144.0538  142.2939  164.3972 N.ar    1  UNL1       -0.2425
      4 C         142.8317  142.3105  165.2668 C.ar    1  UNL1        0.0825
      5 C         142.9348  141.9245  166.7126 C.ar    1  UNL1        0.0230
      6 C         141.7127  141.9411  167.5822 C.ar    1  UNL1        0.0741
      7 C         140.3876  142.3439  167.0060 C.ar    1  UNL1        0.0183
      8 C         140.2846  142.7299  165.5602 C.ar    1  UNL1        0.0463
      9 C         141.5067  142.7132  164.6906 C.ar    1  UNL1        0.0320
     10 C         141.4037  143.0993  163.2448 C.ar    1  UNL1        0.0188
     11 O         143.1344  144.0068  155.5827 O.2     1  UNL1       -0.2523
     12 C         142.2139  144.6268  156.5919 C.2     1  UNL1        0.3074
     13 N         141.1905  145.6327  156.1553 N.am    1  UNL1       -0.2589
     14 C         140.2700  146.2526  157.1645 C.3     1  UNL1        0.1270
     15 C         139.2465  147.2585  156.7278 C.3     1  UNL1        0.1637
     16 O         139.1436  147.6446  155.2820 O.3     1  UNL1       -0.3501
     17 C         140.0640  147.0246  154.2728 C.3     1  UNL1        0.1637
     18 C         141.0875  146.0187  154.7094 C.3     1  UNL1        0.1270
     19 N         142.3169  144.2407  158.0377 N.am    1  UNL1       -0.2605
     20 C         143.3403  143.2348  158.4744 C.3     1  UNL1        0.1164
     21 C         143.4433  142.8488  159.9202 C.3     1  UNL1        0.1124
     22 N         142.5228  143.4687  160.9293 N.pl3   1  UNL1       -0.3028
     23 C         141.4994  144.4746  160.4927 C.3     1  UNL1        0.1124
     24 C         141.3964  144.8607  159.0469 C.3     1  UNL1        0.1164
     25 C         141.8156  141.5551  169.0280 C.3     1  UNL1        0.4187
     26 F         141.9186  141.1691  170.4739 F       1  UNL1       -0.1659
     27 F         143.3101  141.6552  168.9483 F       1  UNL1       -0.1659
     28 F         140.3211  141.4550  169.1077 F       1  UNL1       -0.1659
     29 N         138.9596  143.1326  164.9840 N.pl3   1  UNL1       -0.3290
     30 H         138.7478  144.0854  164.8554 H       1  UNL1        0.1471
     31 C         137.9571  142.0836  164.6036 C.3     1  UNL1        0.1145
     32 C         138.3461  140.6349  164.6160 C.ar    1  UNL1        0.0035
     33 C         138.1772  139.8236  165.8664 C.ar    1  UNL1       -0.0022
     34 C         138.5662  138.3750  165.8788 C.ar    1  UNL1        0.0060
     35 C         139.1242  137.7376  164.6409 C.ar    1  UNL1        0.0752
     36 C         139.2931  138.5489  163.3905 C.ar    1  UNL1        0.2898
     37 C         138.9041  139.9975  163.3781 C.ar    1  UNL1        0.0727
     38 N         139.8511  137.9115  162.1526 N.pl3   1  UNL1        0.0809
     39 O         141.1808  137.2189  162.1998 O.2     1  UNL1        0.0415
     40 O         139.0794  137.9668  160.8676 O.co2   1  UNL1       -0.5760
@<TRIPOS>UNITY_ATOM_ATTR
38 1
charge 1
40 1
charge -1
@<TRIPOS>BOND
     1    11    12    2
     2    12    13   am
     3    13    14    1
     4    14    15    1
     5    15    16    1
     6    16    17    1
     7    17    18    1
     8    12    19   am
     9    19    20    1
    10    20    21    1
    11    21    22    1
    12    22     1    1
    13     1     2   ar
    14     2     3   ar
    15     3     4   ar
    16     4     5   ar
    17     5     6   ar
    18     6    25    1
    19    25    26    1
    20    25    27    1
    21    25    28    1
    22     6     7   ar
    23     7     8   ar
    24     8    29    1
    25    29    31    1
    26    31    32    1
    27    32    33   ar
    28    33    34   ar
    29    34    35   ar
    30    35    36   ar
    31    36    38    1
    32    38    39    2
    33    38    40    1
    34    36    37   ar
    35     8     9   ar
    36     9    10   ar
    37    22    23    1
    38    23    24    1
    39    18    13    1
    40    24    19    1
    41    10     1   ar
    42     9     4   ar
    43    37    32   ar
    44    29    30    1
@<TRIPOS>MOLECULE
*****
 40 44 0 0 0
SMALL
GASTEIGER

@<TRIPOS>ATOM
      1 C         143.0531  139.5465  160.8320 C.ar    1  UNL1        0.0674
      2 C         144.2651  139.0850  161.5857 C.ar    1  UNL1        0.1133
      3 N         144.4811  139.5284  163.0022 N.ar    1  UNL1       -0.2425
      4 C         143.4852  140.4332  163.6651 C.ar    1  UNL1        0.0825
      5 C         143.7013  140.8766  165.0818 C.ar    1  UNL1        0.0230
      6 C         142.7054  141.7814  165.7447 C.ar    1  UNL1        0.0741
      7 C         141.4933  142.2428  164.9909 C.ar    1  UNL1        0.0183
      8 C         141.2773  141.7995  163.5743 C.ar    1  UNL1        0.0463
      9 C         142.2732  140.8947  162.9114 C.ar    1  UNL1        0.0320
     10 C         142.0572  140.4513  161.4949 C.ar    1  UNL1        0.0188
     11 O         142.1194  138.7891  154.0640 O.2     1  UNL1       -0.2523
     12 C         142.1887  137.7733  155.1655 C.2     1  UNL1        0.3074
     13 N         142.0420  136.3141  154.8504 N.am    1  UNL1       -0.2589
     14 C         142.1113  135.2983  155.9518 C.3     1  UNL1        0.1270
     15 C         141.9645  133.8391  155.6367 C.3     1  UNL1        0.1637
     16 O         141.7484  133.3958  154.2201 O.3     1  UNL1       -0.3501
     17 C         141.6791  134.4117  153.1186 C.3     1  UNL1        0.1637
     18 C         141.8258  135.8708  153.4337 C.3     1  UNL1        0.1270
     19 N         142.4048  138.2166  156.5821 N.am    1  UNL1       -0.2605
     20 C         142.5516  139.6758  156.8973 C.3     1  UNL1        0.1164
     21 C         142.7676  140.1190  158.3139 C.3     1  UNL1        0.1124
     22 N         142.8370  139.1032  159.4153 N.pl3   1  UNL1       -0.3028
     23 C         142.6902  137.6440  159.1002 C.3     1  UNL1        0.1124
     24 C         142.4741  137.2007  157.6835 C.3     1  UNL1        0.1164
     25 C         142.9214  142.2247  167.1612 C.3     1  UNL1        0.4187
     26 F         143.1375  142.6681  168.5779 F       1  UNL1       -0.1659
     27 F         144.0584  143.0956  166.7153 F       1  UNL1       -0.1659
     28 F         141.7845  141.3539  167.6072 F       1  UNL1       -0.1659
     29 N         140.0653  142.2610  162.8206 N.pl3   1  UNL1       -0.3290
     30 H         140.1264  143.0368  162.2177 H       1  UNL1        0.1471
     31 C         138.7601  141.5403  162.9856 C.3     1  UNL1        0.1145
     32 C         138.7219  140.2044  163.6668 C.ar    1  UNL1        0.0035
     33 C         139.0601  138.9610  162.8989 C.ar    1  UNL1       -0.0022
     34 C         139.0219  137.6252  163.5800 C.ar    1  UNL1        0.0060
     35 C         138.6453  137.5326  165.0291 C.ar    1  UNL1        0.0752
     36 C         138.3071  138.7760  165.7970 C.ar    1  UNL1        0.2898
     37 C         138.3453  140.1119  165.1158 C.ar    1  UNL1        0.0727
     38 N         137.9305  138.6835  167.2460 N.pl3   1  UNL1        0.0809
     39 O         138.6856  139.4789  168.2693 O.2     1  UNL1        0.0415
     40 O         136.7990  137.7957  167.6716 O.co2   1  UNL1       -0.5760
@<TRIPOS>UNITY_ATOM_ATTR
38 1
charge 1
40 1
charge -1
@<TRIPOS>BOND
     1    11    12    2
     2    12    13   am
     3    13    14    1
     4    14    15    1
     5    15    16    1
     6    16    17    1
     7    17    18    1
     8    12    19   am
     9    19    20    1
    10    20    21    1
    11    21    22    1
    12    22     1    1
    13     1     2   ar
    14     2     3   ar
    15     3     4   ar
    16     4     5   ar
    17     5     6   ar
    18     6    25    1
    19    25    26    1
    20    25    27    1
    21    25    28    1
    22     6     7   ar
    23     7     8   ar
    24     8    29    1
    25    29    31    1
    26    31    32    1
    27    32    33   ar
    28    33    34   ar
    29    34    35   ar
    30    35    36   ar
    31    36    38    1
    32    38    39    2
    33    38    40    1
    34    36    37   ar
    35     8     9   ar
    36     9    10   ar
    37    22    23    1
    38    23    24    1
    39    18    13    1
    40    24    19    1
    41    10     1   ar
    42     9     4   ar
    43    37    32   ar
    44    29    30    1
@<TRIPOS>MOLECULE
*****
 40 44 0 0 0
SMALL
GASTEIGER

@<TRIPOS>ATOM
      1 C         139.9414  142.6003  163.4513 C.ar    1  UNL1        0.0674
      2 C         140.6969  143.5626  164.3191 C.ar    1  UNL1        0.1133
      3 N         140.8486  143.2896  165.7862 N.ar    1  UNL1       -0.2425
      4 C         140.2448  142.0542  166.3855 C.ar    1  UNL1        0.0825
      5 C         140.3965  141.7812  167.8527 C.ar    1  UNL1        0.0230
      6 C         139.7926  140.5458  168.4520 C.ar    1  UNL1        0.0741
      7 C         139.0371  139.5835  167.5842 C.ar    1  UNL1        0.0183
      8 C         138.8854  139.8565  166.1171 C.ar    1  UNL1        0.0463
      9 C         139.4892  141.0919  165.5178 C.ar    1  UNL1        0.0320
     10 C         139.3375  141.3649  164.0507 C.ar    1  UNL1        0.0188
     11 O         140.1619  144.7591  156.9290 O.2     1  UNL1       -0.2523
     12 C         139.3345  143.6923  157.5828 C.2     1  UNL1        0.3074
     13 N         138.3555  142.8985  156.7695 N.am    1  UNL1       -0.2589
     14 C         137.5282  141.8317  157.4234 C.3     1  UNL1        0.1270
     15 C         136.5492  141.0380  156.6100 C.3     1  UNL1        0.1637
     16 O         136.3975  141.3110  155.1429 O.3     1  UNL1       -0.3501
     17 C         137.2248  142.3778  154.4891 C.3     1  UNL1        0.1637
     18 C         138.2038  143.1715  155.3024 C.3     1  UNL1        0.1270
     19 N         139.4862  143.4193  159.0499 N.am    1  UNL1       -0.2605
     20 C         140.4653  144.2131  159.8632 C.3     1  UNL1        0.1164
     21 C         140.6170  143.9401  161.3303 C.3     1  UNL1        0.1124
     22 N         139.7896  142.8733  161.9842 N.pl3   1  UNL1       -0.3028
     23 C         138.8106  142.0795  161.1709 C.3     1  UNL1        0.1124
     24 C         138.6589  142.3525  159.7037 C.3     1  UNL1        0.1164
     25 C         139.9443  140.2728  169.9191 C.3     1  UNL1        0.4187
     26 F         140.0961  139.9998  171.3863 F       1  UNL1       -0.1659
     27 F         141.3977  139.9654  169.7116 F       1  UNL1       -0.1659
     28 F         138.4909  140.5802  170.1266 F       1  UNL1       -0.1659
     29 N         138.1298  138.8942  165.2494 N.pl3   1  UNL1       -0.3290
     30 H         137.1696  139.0323  165.0814 H       1  UNL1        0.1471
     31 C         138.8372  137.7214  164.6377 C.3     1  UNL1        0.1145
     32 C         139.6453  137.9020  163.3869 C.ar    1  UNL1        0.0035
     33 C         138.9560  138.0352  162.0613 C.ar    1  UNL1       -0.0022
     34 C         139.7640  138.2158  160.8106 C.ar    1  UNL1        0.0060
     35 C         141.2614  138.2632  160.8853 C.ar    1  UNL1        0.0752
     36 C         141.9507  138.1300  162.2109 C.ar    1  UNL1        0.2898
     37 C         141.1426  137.9494  163.4617 C.ar    1  UNL1        0.0727
     38 N         143.4481  138.1773  162.2857 N.pl3   1  UNL1        0.0809
     39 O         144.1202  138.9180  163.4036 O.2     1  UNL1        0.0415
     40 O         144.2734  137.4841  161.2425 O.co2   1  UNL1       -0.5760
@<TRIPOS>UNITY_ATOM_ATTR
38 1
charge 1
40 1
charge -1
@<TRIPOS>BOND
     1    11    12    2
     2    12    13   am
     3    13    14    1
     4    14    15    1
     5    15    16    1
     6    16    17    1
     7    17    18    1
     8    12    19   am
     9    19    20    1
    10    20    21    1
    11    21    22    1
    12    22     1    1
    13     1     2   ar
    14     2     3   ar
    15     3     4   ar
    16     4     5   ar
    17     5     6   ar
    18     6    25    1
    19    25    26    1
    20    25    27    1
    21    25    28    1
    22     6     7   ar
    23     7     8   ar
    24     8    29    1
    25    29    31    1
    26    31    32    1
    27    32    33   ar
    28    33    34   ar
    29    34    35   ar
    30    35    36   ar
    31    36    38    1
    32    38    39    2
    33    38    40    1
    34    36    37   ar
    35     8     9   ar
    36     9    10   ar
    37    22    23    1
    38    23    24    1
    39    18    13    1
    40    24    19    1
    41    10     1   ar
    42     9     4   ar
    43    37    32   ar
    44    29    30    1
@<TRIPOS>MOLECULE
*****
 40 44 0 0 0
SMALL
GASTEIGER

@<TRIPOS>ATOM
      1 C         141.8372  138.8538  160.8922 C.ar    1  UNL1        0.0674
      2 C         142.5201  137.9788  161.9012 C.ar    1  UNL1        0.1133
      3 N         141.9064  137.7746  163.2545 N.ar    1  UNL1       -0.2425
      4 C         140.6097  138.4454  163.5989 C.ar    1  UNL1        0.0825
      5 C         139.9959  138.2412  164.9523 C.ar    1  UNL1        0.0230
      6 C         138.6992  138.9119  165.2967 C.ar    1  UNL1        0.0741
      7 C         138.0162  139.7869  164.2877 C.ar    1  UNL1        0.0183
      8 C         138.6300  139.9911  162.9344 C.ar    1  UNL1        0.0463
      9 C         139.9267  139.3203  162.5900 C.ar    1  UNL1        0.0320
     10 C         140.5405  139.5245  161.2366 C.ar    1  UNL1        0.0188
     11 O         143.8143  138.8623  154.3088 O.2     1  UNL1       -0.2523
     12 C         144.2920  139.6705  155.4786 C.2     1  UNL1        0.3074
     13 N         145.3835  140.6829  155.2951 N.am    1  UNL1       -0.2589
     14 C         145.8613  141.4911  156.4649 C.3     1  UNL1        0.1270
     15 C         146.9528  142.5036  156.2813 C.3     1  UNL1        0.1637
     16 O         147.5665  142.7078  154.9280 O.3     1  UNL1       -0.3501
     17 C         147.0887  141.8995  153.7581 C.3     1  UNL1        0.1637
     18 C         145.9972  140.8871  153.9417 C.3     1  UNL1        0.1270
     19 N         143.6784  139.4664  156.8320 N.am    1  UNL1       -0.2605
     20 C         142.5868  138.4539  157.0156 C.3     1  UNL1        0.1164
     21 C         141.9732  138.2497  158.3690 C.3     1  UNL1        0.1124
     22 N         142.4509  139.0580  159.5388 N.pl3   1  UNL1       -0.3028
     23 C         143.5424  140.0704  159.3553 C.3     1  UNL1        0.1124
     24 C         144.1561  140.2746  158.0018 C.3     1  UNL1        0.1164
     25 C         138.0855  138.7078  166.6501 C.3     1  UNL1        0.4187
     26 F         137.4717  138.5036  168.0035 F       1  UNL1       -0.1659
     27 F         138.4760  140.1032  167.0377 F       1  UNL1       -0.1659
     28 F         137.6949  137.3124  166.2624 F       1  UNL1       -0.1659
     29 N         137.9470  140.8660  161.9254 N.pl3   1  UNL1       -0.3290
     30 H         137.6679  140.4923  161.0585 H       1  UNL1        0.1471
     31 C         137.6894  142.3104  162.2374 C.3     1  UNL1        0.1145
     32 C         138.7868  143.1631  162.8020 C.ar    1  UNL1        0.0035
     33 C         138.6590  143.7317  164.1842 C.ar    1  UNL1       -0.0022
     34 C         139.7564  144.5843  164.7488 C.ar    1  UNL1        0.0060
     35 C         140.9815  144.8684  163.9312 C.ar    1  UNL1        0.0752
     36 C         141.1093  144.2999  162.5490 C.ar    1  UNL1        0.2898
     37 C         140.0119  143.4472  161.9844 C.ar    1  UNL1        0.0727
     38 N         142.3343  144.5840  161.7315 N.pl3   1  UNL1        0.0809
     39 O         142.2154  144.7984  160.2517 O.2     1  UNL1        0.0415
     40 O         143.6784  144.6537  162.3938 O.co2   1  UNL1       -0.5760
@<TRIPOS>UNITY_ATOM_ATTR
38 1
charge 1
40 1
charge -1
@<TRIPOS>BOND
     1    11    12    2
     2    12    13   am
     3    13    14    1
     4    14    15    1
     5    15    16    1
     6    16    17    1
     7    17    18    1
     8    12    19   am
     9    19    20    1
    10    20    21    1
    11    21    22    1
    12    22     1    1
    13     1     2   ar
    14     2     3   ar
    15     3     4   ar
    16     4     5   ar
    17     5     6   ar
    18     6    25    1
    19    25    26    1
    20    25    27    1
    21    25    28    1
    22     6     7   ar
    23     7     8   ar
    24     8    29    1
    25    29    31    1
    26    31    32    1
    27    32    33   ar
    28    33    34   ar
    29    34    35   ar
    30    35    36   ar
    31    36    38    1
    32    38    39    2
    33    38    40    1
    34    36    37   ar
    35     8     9   ar
    36     9    10   ar
    37    22    23    1
    38    23    24    1
    39    18    13    1
    40    24    19    1
    41    10     1   ar
    42     9     4   ar
    43    37    32   ar
    44    29    30    1
@<TRIPOS>MOLECULE
*****
 40 44 0 0 0
SMALL
GASTEIGER

@<TRIPOS>ATOM
      1 C         140.9521  139.0349  161.0320 C.ar    1  UNL1        0.0674
      2 C         139.6740  138.2503  161.0056 C.ar    1  UNL1        0.1133
      3 N         138.8679  138.0876  162.2601 N.ar    1  UNL1       -0.2425
      4 C         139.3399  138.7094  163.5409 C.ar    1  UNL1        0.0825
      5 C         138.5338  138.5466  164.7954 C.ar    1  UNL1        0.0230
      6 C         139.0058  139.1685  166.0762 C.ar    1  UNL1        0.0741
      7 C         140.2841  139.9531  166.1025 C.ar    1  UNL1        0.0183
      8 C         141.0901  140.1158  164.8481 C.ar    1  UNL1        0.0463
      9 C         140.6181  139.4940  163.5673 C.ar    1  UNL1        0.0320
     10 C         141.4242  139.6567  162.3128 C.ar    1  UNL1        0.0188
     11 O         143.8866  138.8264  154.8195 O.2     1  UNL1       -0.2523
     12 C         144.1766  139.6858  156.0141 C.2     1  UNL1        0.3074
     13 N         145.2728  140.7080  155.9543 N.am    1  UNL1       -0.2589
     14 C         145.5628  141.5675  157.1490 C.3     1  UNL1        0.1270
     15 C         146.6590  142.5897  157.0892 C.3     1  UNL1        0.1637
     16 O         147.4651  142.7524  155.8347 O.3     1  UNL1       -0.3501
     17 C         147.1751  141.8930  154.6401 C.3     1  UNL1        0.1637
     18 C         146.0789  140.8708  154.6998 C.3     1  UNL1        0.1270
     19 N         143.3706  139.5231  157.2686 N.am    1  UNL1       -0.2605
     20 C         142.2744  138.5009  157.3284 C.3     1  UNL1        0.1164
     21 C         141.4683  138.3382  158.5828 C.3     1  UNL1        0.1124
     22 N         141.7583  139.1976  159.7775 N.pl3   1  UNL1       -0.3028
     23 C         142.8544  140.2198  159.7177 C.3     1  UNL1        0.1124
     24 C         143.6606  140.3826  158.4632 C.3     1  UNL1        0.1164
     25 C         138.1997  139.0057  167.3306 C.3     1  UNL1        0.4187
     26 F         137.3936  138.8430  168.5851 F       1  UNL1       -0.1659
     27 F         137.3554  137.9673  166.6534 F       1  UNL1       -0.1659
     28 F         139.0441  140.0441  168.0079 F       1  UNL1       -0.1659
     29 N         142.3683  140.9004  164.8744 N.pl3   1  UNL1       -0.3290
     30 H         143.2320  140.4376  164.7791 H       1  UNL1        0.1471
     31 C         142.3305  142.3900  165.0461 C.3     1  UNL1        0.1145
     32 C         141.1539  143.1733  164.5439 C.ar    1  UNL1        0.0035
     33 C         140.1204  143.6753  165.5083 C.ar    1  UNL1       -0.0022
     34 C         138.9438  144.4584  165.0062 C.ar    1  UNL1        0.0060
     35 C         138.8006  144.7397  163.5397 C.ar    1  UNL1        0.0752
     36 C         139.8341  144.2377  162.5754 C.ar    1  UNL1        0.2898
     37 C         141.0107  143.4545  163.0775 C.ar    1  UNL1        0.0727
     38 N         139.6909  144.5189  161.1090 N.pl3   1  UNL1        0.0809
     39 O         140.2569  145.7810  160.5286 O.2     1  UNL1        0.0415
     40 O         138.9818  143.5380  160.2230 O.co2   1  UNL1       -0.5760
@<TRIPOS>UNITY_ATOM_ATTR
38 1
charge 1
40 1
charge -1
@<TRIPOS>BOND
     1    11    12    2
     2    12    13   am
     3    13    14    1
     4    14    15    1
     5    15    16    1
     6    16    17    1
     7    17    18    1
     8    12    19   am
     9    19    20    1
    10    20    21    1
    11    21    22    1
    12    22     1    1
    13     1     2   ar
    14     2     3   ar
    15     3     4   ar
    16     4     5   ar
    17     5     6   ar
    18     6    25    1
    19    25    26    1
    20    25    27    1
    21    25    28    1
    22     6     7   ar
    23     7     8   ar
    24     8    29    1
    25    29    31    1
    26    31    32    1
    27    32    33   ar
    28    33    34   ar
    29    34    35   ar
    30    35    36   ar
    31    36    38    1
    32    38    39    2
    33    38    40    1
    34    36    37   ar
    35     8     9   ar
    36     9    10   ar
    37    22    23    1
    38    23    24    1
    39    18    13    1
    40    24    19    1
    41    10     1   ar
    42     9     4   ar
    43    37    32   ar
    44    29    30    1
@<TRIPOS>MOLECULE
*****
 40 44 0 0 0
SMALL
GASTEIGER

@<TRIPOS>ATOM
      1 C         139.7793  142.8575  163.0951 C.ar    1  UNL1        0.0674
      2 C         140.0657  144.0369  163.9766 C.ar    1  UNL1        0.1133
      3 N         140.2066  143.8492  165.4581 N.ar    1  UNL1       -0.2425
      4 C         140.0611  142.4821  166.0581 C.ar    1  UNL1        0.0825
      5 C         140.2020  142.2944  167.5396 C.ar    1  UNL1        0.0230
      6 C         140.0566  140.9274  168.1396 C.ar    1  UNL1        0.0741
      7 C         139.7702  139.7480  167.2580 C.ar    1  UNL1        0.0183
      8 C         139.6293  139.9357  165.7765 C.ar    1  UNL1        0.0463
      9 C         139.7748  141.3028  165.1766 C.ar    1  UNL1        0.0320
     10 C         139.6339  141.4905  163.6951 C.ar    1  UNL1        0.0188
     11 O         140.0915  144.5920  156.4509 O.2     1  UNL1       -0.2523
     12 C         139.2158  143.6083  157.1689 C.2     1  UNL1        0.3074
     13 N         138.1992  142.8123  156.4054 N.am    1  UNL1       -0.2589
     14 C         137.3235  141.8286  157.1234 C.3     1  UNL1        0.1270
     15 C         136.3069  141.0326  156.3599 C.3     1  UNL1        0.1637
     16 O         136.1661  141.2203  154.8784 O.3     1  UNL1       -0.3501
     17 C         137.0418  142.2040  154.1604 C.3     1  UNL1        0.1637
     18 C         138.0583  143.0000  154.9239 C.3     1  UNL1        0.1270
     19 N         139.3567  143.4206  158.6504 N.am    1  UNL1       -0.2605
     20 C         140.3733  144.2166  159.4140 C.3     1  UNL1        0.1164
     21 C         140.5141  144.0289  160.8955 C.3     1  UNL1        0.1124
     22 N         139.6384  143.0452  161.6135 N.pl3   1  UNL1       -0.3028
     23 C         138.6219  142.2492  160.8500 C.3     1  UNL1        0.1124
     24 C         138.4810  142.4369  159.3684 C.3     1  UNL1        0.1164
     25 C         140.1975  140.7397  169.6211 C.3     1  UNL1        0.4187
     26 F         140.3384  140.5519  171.1027 F       1  UNL1       -0.1659
     27 F         140.9645  139.4720  169.3876 F       1  UNL1       -0.1659
     28 F         139.4304  142.0073  169.8547 F       1  UNL1       -0.1659
     29 N         139.3430  138.7564  164.8950 N.pl3   1  UNL1       -0.3290
     30 H         138.4230  138.5802  164.5919 H       1  UNL1        0.1471
     31 C         140.4583  137.8453  164.4754 C.3     1  UNL1        0.1145
     32 C         141.8749  138.3385  164.4888 C.ar    1  UNL1        0.0035
     33 C         142.7104  138.1860  165.7252 C.ar    1  UNL1       -0.0022
     34 C         144.1269  138.6791  165.7387 C.ar    1  UNL1        0.0060
     35 C         144.7080  139.3248  164.5157 C.ar    1  UNL1        0.0752
     36 C         143.8725  139.4773  163.2793 C.ar    1  UNL1        0.2898
     37 C         142.4559  138.9841  163.2659 C.ar    1  UNL1        0.0727
     38 N         144.4534  140.1230  162.0564 N.pl3   1  UNL1        0.0809
     39 O         144.1812  139.5422  160.7005 O.2     1  UNL1        0.0415
     40 O         145.3067  141.3494  162.1895 O.co2   1  UNL1       -0.5760
@<TRIPOS>UNITY_ATOM_ATTR
38 1
charge 1
40 1
charge -1
@<TRIPOS>BOND
     1    11    12    2
     2    12    13   am
     3    13    14    1
     4    14    15    1
     5    15    16    1
     6    16    17    1
     7    17    18    1
     8    12    19   am
     9    19    20    1
    10    20    21    1
    11    21    22    1
    12    22     1    1
    13     1     2   ar
    14     2     3   ar
    15     3     4   ar
    16     4     5   ar
    17     5     6   ar
    18     6    25    1
    19    25    26    1
    20    25    27    1
    21    25    28    1
    22     6     7   ar
    23     7     8   ar
    24     8    29    1
    25    29    31    1
    26    31    32    1
    27    32    33   ar
    28    33    34   ar
    29    34    35   ar
    30    35    36   ar
    31    36    38    1
    32    38    39    2
    33    38    40    1
    34    36    37   ar
    35     8     9   ar
    36     9    10   ar
    37    22    23    1
    38    23    24    1
    39    18    13    1
    40    24    19    1
    41    10     1   ar
    42     9     4   ar
    43    37    32   ar
    44    29    30    1
@<TRIPOS>MOLECULE
*****
 40 44 0 0 0
SMALL
GASTEIGER

@<TRIPOS>ATOM
      1 C         139.4229  139.5341  163.5771 C.ar    1  UNL1        0.0674
      2 C         138.1889  139.1579  164.3423 C.ar    1  UNL1        0.1133
      3 N         138.1723  139.2649  165.8384 N.ar    1  UNL1       -0.2425
      4 C         139.3898  139.7481  166.5693 C.ar    1  UNL1        0.0825
      5 C         139.3733  139.8550  168.0654 C.ar    1  UNL1        0.0230
      6 C         140.5908  140.3383  168.7963 C.ar    1  UNL1        0.0741
      7 C         141.8249  140.7145  168.0310 C.ar    1  UNL1        0.0183
      8 C         141.8414  140.6075  166.5349 C.ar    1  UNL1        0.0463
      9 C         140.6239  140.1243  165.8041 C.ar    1  UNL1        0.0320
     10 C         140.6404  140.0173  164.3080 C.ar    1  UNL1        0.0188
     11 O         138.3588  139.6757  156.7876 O.2     1  UNL1       -0.2523
     12 C         139.4891  139.1063  157.5927 C.2     1  UNL1        0.3074
     13 N         140.6359  138.4300  156.9018 N.am    1  UNL1       -0.2589
     14 C         141.7662  137.8607  157.7070 C.3     1  UNL1        0.1270
     15 C         142.9131  137.1844  157.0160 C.3     1  UNL1        0.1637
     16 O         142.9296  137.0775  155.5199 O.3     1  UNL1       -0.3501
     17 C         141.7993  137.6468  154.7148 C.3     1  UNL1        0.1637
     18 C         140.6525  138.3231  155.4057 C.3     1  UNL1        0.1270
     19 N         139.4725  139.2133  159.0888 N.am    1  UNL1       -0.2605
     20 C         138.3257  139.8896  159.7798 C.3     1  UNL1        0.1164
     21 C         138.3092  139.9965  161.2758 C.3     1  UNL1        0.1124
     22 N         139.4395  139.4272  162.0810 N.pl3   1  UNL1       -0.3028
     23 C         140.5863  138.7509  161.3901 C.3     1  UNL1        0.1124
     24 C         140.6028  138.6439  159.8939 C.3     1  UNL1        0.1164
     25 C         140.5743  140.4452  170.2923 C.3     1  UNL1        0.4187
     26 F         140.5578  140.5522  171.7885 F       1  UNL1       -0.1659
     27 F         141.3351  139.1565  170.3929 F       1  UNL1       -0.1659
     28 F         139.8134  141.7340  170.1918 F       1  UNL1       -0.1659
     29 N         143.0754  140.9838  165.7697 N.pl3   1  UNL1       -0.3290
     30 H         143.6452  140.2825  165.3790 H       1  UNL1        0.1471
     31 C         143.4413  142.4285  165.5999 C.3     1  UNL1        0.1145
     32 C         142.7554  143.2581  164.5551 C.ar    1  UNL1        0.0035
     33 C         143.5082  143.7005  163.3355 C.ar    1  UNL1       -0.0022
     34 C         142.8225  144.5300  162.2907 C.ar    1  UNL1        0.0060
     35 C         141.3838  144.9171  162.4656 C.ar    1  UNL1        0.0752
     36 C         140.6310  144.4747  163.6852 C.ar    1  UNL1        0.2898
     37 C         141.3169  143.6452  164.7300 C.ar    1  UNL1        0.0727
     38 N         139.1925  144.8619  163.8601 N.pl3   1  UNL1        0.0809
     39 O         138.3059  145.0158  162.6600 O.2     1  UNL1        0.0415
     40 O         138.6404  145.0951  165.2352 O.co2   1  UNL1       -0.5760
@<TRIPOS>UNITY_ATOM_ATTR
38 1
charge 1
40 1
charge -1
@<TRIPOS>BOND
     1    11    12    2
     2    12    13   am
     3    13    14    1
     4    14    15    1
     5    15    16    1
     6    16    17    1
     7    17    18    1
     8    12    19   am
     9    19    20    1
    10    20    21    1
    11    21    22    1
    12    22     1    1
    13     1     2   ar
    14     2     3   ar
    15     3     4   ar
    16     4     5   ar
    17     5     6   ar
    18     6    25    1
    19    25    26    1
    20    25    27    1
    21    25    28    1
    22     6     7   ar
    23     7     8   ar
    24     8    29    1
    25    29    31    1
    26    31    32    1
    27    32    33   ar
    28    33    34   ar
    29    34    35   ar
    30    35    36   ar
    31    36    38    1
    32    38    39    2
    33    38    40    1
    34    36    37   ar
    35     8     9   ar
    36     9    10   ar
    37    22    23    1
    38    23    24    1
    39    18    13    1
    40    24    19    1
    41    10     1   ar
    42     9     4   ar
    43    37    32   ar
    44    29    30    1
