@<TRIPOS>MOLECULE
*****
 36 40 0 0 0
SMALL
GASTEIGER

@<TRIPOS>ATOM
      1 O         141.9588  142.6059  166.7404 O.3     1  UNL1       -0.4535
      2 C         140.7221  144.0798  162.6725 C.ar    1  UNL1        0.0536
      3 C         139.7463  144.1140  163.8112 C.ar    1  UNL1        0.0076
      4 C         140.1586  143.6227  165.1672 C.ar    1  UNL1        0.0376
      5 C         141.5466  143.0972  165.3845 C.ar    1  UNL1        0.1453
      6 C         142.5224  143.0630  164.2457 C.ar    1  UNL1        0.0376
      7 C         142.1101  143.5544  162.8897 C.ar    1  UNL1        0.0076
      8 N         140.8321  143.8956  160.0833 N.am    1  UNL1       -0.3024
      9 C         140.3097  144.5711  161.3165 C.2     1  UNL1        0.2458
     10 O         139.3752  145.7378  161.1937 O.2     1  UNL1       -0.2701
     11 H         141.4455  143.1298  160.1639 H       1  UNL1        0.1497
     12 C         139.1830  145.8604  154.6593 C.3     1  UNL1        0.0896
     13 N         139.5952  145.3692  156.0153 N.3     1  UNL1       -0.2714
     14 C         140.5042  146.2017  156.8701 C.3     1  UNL1        0.0738
     15 C         140.9165  145.7105  158.2262 C.3     1  UNL1        0.0369
     16 C         140.4198  144.3868  158.7273 C.3     1  UNL1        0.0746
     17 C         139.5109  143.5543  157.8725 C.3     1  UNL1        0.0369
     18 C         139.0985  144.0455  156.5164 C.3     1  UNL1        0.0738
     19 C         140.9733  141.8784  167.6062 C.ar    1  UNL1        0.1453
     20 C         140.6256  142.4168  168.9623 C.ar    1  UNL1        0.0381
     21 C         139.6402  141.6893  169.8281 C.ar    1  UNL1        0.0114
     22 C         139.0023  140.4233  169.3376 C.ar    1  UNL1        0.0419
     23 C         139.3500  139.8849  167.9815 C.ar    1  UNL1        0.0114
     24 C         140.3355  140.6124  167.1157 C.ar    1  UNL1        0.0381
     25 C         138.0168  139.6958  170.2034 C.1     1  UNL1       -0.0621
     26 C         137.0313  138.9684  171.0690 C.1     1  UNL1       -0.0597
     27 C         135.4572  137.5815  172.8196 C.3     1  UNL1        0.1561
     28 O         135.3891  139.6511  171.8147 O.3     1  UNL1       -0.3739
     29 C         136.3754  136.5889  172.7127 C.3     1  UNL1        0.1120
     30 N         136.9050  135.9593  172.6801 N.3     1  UNL1       -0.2699
     31 C         135.7081  135.7814  173.5664 C.3     1  UNL1        0.0723
     32 C         134.6926  136.8790  173.6846 C.3     1  UNL1        0.0207
     33 C         134.8742  138.1546  172.9165 C.3     1  UNL1        0.0404
     34 C         136.0711  138.3325  172.0302 C.3     1  UNL1        0.0207
     35 C         137.0866  137.2349  171.9120 C.3     1  UNL1        0.0723
     36 H         136.1656  139.7589  171.2435 H       1  UNL1        0.2115
@<TRIPOS>BOND
     1    12    13    1
     2    13    14    1
     3    14    15    1
     4    15    16    1
     5    16     8    1
     6     8     9   am
     7     9    10    2
     8     9     2    1
     9     2     3   ar
    10     3     4   ar
    11     4     5   ar
    12     5     1    1
    13     1    19    1
    14    19    20   ar
    15    20    21   ar
    16    21    22   ar
    17    22    25    1
    18    25    26    3
    19    26    27    1
    20    27    28    1
    21    27    29    1
    22    29    30    1
    23    30    31    1
    24    31    32    1
    25    32    33    1
    26    33    34    1
    27    34    35    1
    28    22    23   ar
    29    23    24   ar
    30     5     6   ar
    31     6     7   ar
    32    16    17    1
    33    17    18    1
    34    18    13    1
    35     7     2   ar
    36    24    19   ar
    37    33    27    1
    38    35    30    1
    39     8    11    1
    40    28    36    1
@<TRIPOS>MOLECULE
*****
 36 40 0 0 0
SMALL
GASTEIGER

@<TRIPOS>ATOM
      1 O         139.6240  141.4564  166.8639 O.3     1  UNL1       -0.4535
      2 C         138.8146  140.2912  162.5934 C.ar    1  UNL1        0.0536
      3 C         138.1448  139.5507  163.7127 C.ar    1  UNL1        0.0076
      4 C         138.4146  139.9390  165.1362 C.ar    1  UNL1        0.0376
      5 C         139.3542  141.0680  165.4405 C.ar    1  UNL1        0.1453
      6 C         140.0240  141.8086  164.3211 C.ar    1  UNL1        0.0376
      7 C         139.7542  141.4202  162.8975 C.ar    1  UNL1        0.0076
      8 N         139.6074  140.0886  160.1276 N.am    1  UNL1       -0.3024
      9 C         138.5448  139.9028  161.1699 C.2     1  UNL1        0.2458
     10 O         137.2126  139.3287  160.7887 O.2     1  UNL1       -0.2701
     11 H         140.4818  140.4655  160.3778 H       1  UNL1        0.1497
     12 C         138.5284  138.5351  154.4334 C.3     1  UNL1        0.0896
     13 N         138.7981  138.9236  155.8570 N.3     1  UNL1       -0.2714
     14 C         139.5352  137.9834  156.7641 C.3     1  UNL1        0.0738
     15 C         139.8049  138.3717  158.1876 C.3     1  UNL1        0.0369
     16 C         139.3376  139.7002  158.7040 C.3     1  UNL1        0.0746
     17 C         138.6006  140.6404  157.7969 C.3     1  UNL1        0.0369
     18 C         138.3308  140.2521  156.3734 C.3     1  UNL1        0.0738
     19 C         140.5485  140.6273  167.7052 C.ar    1  UNL1        0.1453
     20 C         141.7784  140.0229  167.0953 C.ar    1  UNL1        0.0381
     21 C         142.7030  139.1938  167.9365 C.ar    1  UNL1        0.0114
     22 C         142.3976  138.9691  169.3879 C.ar    1  UNL1        0.0419
     23 C         141.1677  139.5734  169.9979 C.ar    1  UNL1        0.0114
     24 C         140.2432  140.4025  169.1565 C.ar    1  UNL1        0.0381
     25 C         143.3222  138.1400  170.2291 C.1     1  UNL1       -0.0621
     26 C         144.2468  137.3108  171.0703 C.1     1  UNL1       -0.0597
     27 C         145.9229  136.0143  172.7952 C.3     1  UNL1        0.1561
     28 O         145.6021  138.1917  172.1218 O.3     1  UNL1       -0.3739
     29 C         145.2779  134.8810  172.4218 C.3     1  UNL1        0.1120
     30 N         144.9164  134.1675  172.2266 N.3     1  UNL1       -0.2699
     31 C         146.0291  134.1011  173.2303 C.3     1  UNL1        0.0723
     32 C         146.7424  135.3543  173.6432 C.3     1  UNL1        0.0207
     33 C         146.3431  136.6740  173.0523 C.3     1  UNL1        0.0404
     34 C         145.2304  136.7403  172.0486 C.3     1  UNL1        0.0207
     35 C         144.5171  135.4871  171.6358 C.3     1  UNL1        0.0723
     36 H         144.8816  138.2268  171.4732 H       1  UNL1        0.2115
@<TRIPOS>BOND
     1    12    13    1
     2    13    14    1
     3    14    15    1
     4    15    16    1
     5    16     8    1
     6     8     9   am
     7     9    10    2
     8     9     2    1
     9     2     3   ar
    10     3     4   ar
    11     4     5   ar
    12     5     1    1
    13     1    19    1
    14    19    20   ar
    15    20    21   ar
    16    21    22   ar
    17    22    25    1
    18    25    26    3
    19    26    27    1
    20    27    28    1
    21    27    29    1
    22    29    30    1
    23    30    31    1
    24    31    32    1
    25    32    33    1
    26    33    34    1
    27    34    35    1
    28    22    23   ar
    29    23    24   ar
    30     5     6   ar
    31     6     7   ar
    32    16    17    1
    33    17    18    1
    34    18    13    1
    35     7     2   ar
    36    24    19   ar
    37    33    27    1
    38    35    30    1
    39     8    11    1
    40    28    36    1
@<TRIPOS>MOLECULE
*****
 36 40 0 0 0
SMALL
GASTEIGER

@<TRIPOS>ATOM
      1 O         139.6174  141.5950  166.6196 O.3     1  UNL1       -0.4535
      2 C         141.0629  143.0322  162.6078 C.ar    1  UNL1        0.0536
      3 C         140.2271  141.7903  162.7030 C.ar    1  UNL1        0.0076
      4 C         139.7452  141.3113  164.0403 C.ar    1  UNL1        0.0376
      5 C         140.0992  142.0740  165.2824 C.ar    1  UNL1        0.1453
      6 C         140.9351  143.3160  165.1872 C.ar    1  UNL1        0.0376
      7 C         141.4170  143.7950  163.8498 C.ar    1  UNL1        0.0076
      8 N         140.7010  143.2976  160.0488 N.am    1  UNL1       -0.3024
      9 C         141.5448  143.5112  161.2704 C.2     1  UNL1        0.2458
     10 O         142.8703  144.2036  161.1548 O.2     1  UNL1       -0.2701
     11 H         139.8310  142.8431  160.1248 H       1  UNL1        0.1497
     12 C         142.6281  145.2135  154.6994 C.3     1  UNL1        0.0896
     13 N         142.1463  144.7345  156.0368 N.3     1  UNL1       -0.2714
     14 C         141.3670  145.6562  156.9272 C.3     1  UNL1        0.0738
     15 C         140.8852  145.1773  158.2647 C.3     1  UNL1        0.0369
     16 C         141.1828  143.7766  158.7114 C.3     1  UNL1        0.0746
     17 C         141.9622  142.8549  157.8209 C.3     1  UNL1        0.0369
     18 C         142.4440  143.3338  156.4835 C.3     1  UNL1        0.0738
     19 C         140.5128  140.7570  167.4834 C.ar    1  UNL1        0.1453
     20 C         141.7250  140.1006  166.8923 C.ar    1  UNL1        0.0381
     21 C         142.6205  139.2626  167.7559 C.ar    1  UNL1        0.0114
     22 C         142.3035  139.0810  169.2109 C.ar    1  UNL1        0.0419
     23 C         141.0913  139.7374  169.8020 C.ar    1  UNL1        0.0114
     24 C         140.1959  140.5755  168.9382 C.ar    1  UNL1        0.0381
     25 C         143.1989  138.2430  170.0745 C.1     1  UNL1       -0.0621
     26 C         144.0943  137.4049  170.9381 C.1     1  UNL1       -0.0597
     27 C         145.8097  136.1238  172.6357 C.3     1  UNL1        0.1561
     28 O         145.4581  138.2983  171.9680 O.3     1  UNL1       -0.3739
     29 C         145.1693  134.9847  172.2725 C.3     1  UNL1        0.1120
     30 N         144.8114  134.2678  172.0829 N.3     1  UNL1       -0.2699
     31 C         145.9406  134.2117  173.0687 C.3     1  UNL1        0.0723
     32 C         146.6488  135.4714  173.4704 C.3     1  UNL1        0.0207
     33 C         146.2278  136.7874  172.8863 C.3     1  UNL1        0.0404
     34 C         145.0987  136.8435  171.9005 C.3     1  UNL1        0.0207
     35 C         144.3905  135.5837  171.4988 C.3     1  UNL1        0.0723
     36 H         144.7271  138.3267  171.3311 H       1  UNL1        0.2115
@<TRIPOS>BOND
     1    12    13    1
     2    13    14    1
     3    14    15    1
     4    15    16    1
     5    16     8    1
     6     8     9   am
     7     9    10    2
     8     9     2    1
     9     2     3   ar
    10     3     4   ar
    11     4     5   ar
    12     5     1    1
    13     1    19    1
    14    19    20   ar
    15    20    21   ar
    16    21    22   ar
    17    22    25    1
    18    25    26    3
    19    26    27    1
    20    27    28    1
    21    27    29    1
    22    29    30    1
    23    30    31    1
    24    31    32    1
    25    32    33    1
    26    33    34    1
    27    34    35    1
    28    22    23   ar
    29    23    24   ar
    30     5     6   ar
    31     6     7   ar
    32    16    17    1
    33    17    18    1
    34    18    13    1
    35     7     2   ar
    36    24    19   ar
    37    33    27    1
    38    35    30    1
    39     8    11    1
    40    28    36    1
@<TRIPOS>MOLECULE
*****
 36 40 0 0 0
SMALL
GASTEIGER

@<TRIPOS>ATOM
      1 O         139.7888  142.1430  167.0813 O.3     1  UNL1       -0.4535
      2 C         139.3659  141.7298  162.6203 C.ar    1  UNL1        0.0536
      3 C         140.3167  142.7386  163.1933 C.ar    1  UNL1        0.0076
      4 C         140.4576  142.8763  164.6803 C.ar    1  UNL1        0.0376
      5 C         139.6478  142.0053  165.5943 C.ar    1  UNL1        0.1453
      6 C         138.6970  140.9965  165.0213 C.ar    1  UNL1        0.0376
      7 C         138.5561  140.8588  163.5342 C.ar    1  UNL1        0.0076
      8 N         138.6194  140.3504  160.5492 N.am    1  UNL1       -0.3024
      9 C         139.2250  141.5921  161.1332 C.2     1  UNL1        0.2458
     10 O         139.6897  142.6961  160.2304 O.2     1  UNL1       -0.2701
     11 H         138.3144  139.6258  161.1418 H       1  UNL1        0.1497
     12 C         138.0556  139.7992  154.6011 C.3     1  UNL1        0.0896
     13 N         138.1966  139.9370  156.0882 N.3     1  UNL1       -0.2714
     14 C         137.2478  140.8109  156.8536 C.3     1  UNL1        0.0738
     15 C         137.3887  140.9487  158.3407 C.3     1  UNL1        0.0369
     16 C         138.4784  140.2126  159.0621 C.3     1  UNL1        0.0746
     17 C         139.4272  139.3386  158.2967 C.3     1  UNL1        0.0369
     18 C         139.2863  139.2008  156.8097 C.3     1  UNL1        0.0738
     19 C         140.5917  141.1394  167.8547 C.ar    1  UNL1        0.1453
     20 C         141.7716  140.4695  167.2151 C.ar    1  UNL1        0.0381
     21 C         142.5745  139.4660  167.9885 C.ar    1  UNL1        0.0114
     22 C         142.1976  139.1323  169.4016 C.ar    1  UNL1        0.0419
     23 C         141.0177  139.8023  170.0412 C.ar    1  UNL1        0.0114
     24 C         140.2148  140.8059  169.2677 C.ar    1  UNL1        0.0381
     25 C         143.0005  138.1288  170.1749 C.1     1  UNL1       -0.0621
     26 C         143.8034  137.1252  170.9482 C.1     1  UNL1       -0.0597
     27 C         145.4432  135.5136  172.4246 C.3     1  UNL1        0.1561
     28 O         143.1884  135.6116  171.9728 O.3     1  UNL1       -0.3739
     29 C         146.4542  136.3117  171.9996 C.3     1  UNL1        0.1120
     30 N         147.0997  136.7675  171.7684 N.3     1  UNL1       -0.2699
     31 C         147.3891  135.6111  172.6788 C.3     1  UNL1        0.0723
     32 C         146.2711  134.7285  173.1487 C.3     1  UNL1        0.0207
     33 C         144.8636  135.0023  172.7083 C.3     1  UNL1        0.0404
     34 C         144.5741  136.1587  171.7979 C.3     1  UNL1        0.0207
     35 C         145.6922  137.0413  171.3280 C.3     1  UNL1        0.0723
     36 H         143.0089  136.3613  171.3840 H       1  UNL1        0.2115
@<TRIPOS>BOND
     1    12    13    1
     2    13    14    1
     3    14    15    1
     4    15    16    1
     5    16     8    1
     6     8     9   am
     7     9    10    2
     8     9     2    1
     9     2     3   ar
    10     3     4   ar
    11     4     5   ar
    12     5     1    1
    13     1    19    1
    14    19    20   ar
    15    20    21   ar
    16    21    22   ar
    17    22    25    1
    18    25    26    3
    19    26    27    1
    20    27    28    1
    21    27    29    1
    22    29    30    1
    23    30    31    1
    24    31    32    1
    25    32    33    1
    26    33    34    1
    27    34    35    1
    28    22    23   ar
    29    23    24   ar
    30     5     6   ar
    31     6     7   ar
    32    16    17    1
    33    17    18    1
    34    18    13    1
    35     7     2   ar
    36    24    19   ar
    37    33    27    1
    38    35    30    1
    39     8    11    1
    40    28    36    1
@<TRIPOS>MOLECULE
*****
 36 40 0 0 0
SMALL
GASTEIGER

@<TRIPOS>ATOM
      1 O         139.8480  139.9759  158.5176 O.3     1  UNL1       -0.4535
      2 C         141.9929  136.4926  156.6425 C.ar    1  UNL1        0.0536
      3 C         140.6135  136.8601  156.1818 C.ar    1  UNL1        0.0076
      4 C         139.8986  138.0212  156.8069 C.ar    1  UNL1        0.0376
      5 C         140.5630  138.8148  157.8925 C.ar    1  UNL1        0.1453
      6 C         141.9424  138.4473  158.3532 C.ar    1  UNL1        0.0376
      7 C         142.6574  137.2862  157.7281 C.ar    1  UNL1        0.0076
      8 N         142.0481  133.9855  155.9633 N.am    1  UNL1       -0.3024
      9 C         142.7079  135.3315  156.0174 C.2     1  UNL1        0.2458
     10 O         144.0825  135.5163  155.4464 O.2     1  UNL1       -0.2701
     11 H         141.1458  133.8642  156.3381 H       1  UNL1        0.1497
     12 C         144.9076  129.3408  153.4632 C.3     1  UNL1        0.0896
     13 N         144.1927  130.5020  154.0883 N.3     1  UNL1       -0.2714
     14 C         143.1749  131.2696  153.2979 C.3     1  UNL1        0.0738
     15 C         142.4600  132.4308  153.9228 C.3     1  UNL1        0.0369
     16 C         142.7630  132.8243  155.3382 C.3     1  UNL1        0.0746
     17 C         143.7808  132.0567  156.1286 C.3     1  UNL1        0.0369
     18 C         144.4957  130.8955  155.5036 C.3     1  UNL1        0.0738
     19 C         139.9007  140.1776  160.0030 C.ar    1  UNL1        0.1453
     20 C         139.2250  139.1992  160.9173 C.ar    1  UNL1        0.0381
     21 C         139.2777  139.4008  162.4027 C.ar    1  UNL1        0.0114
     22 C         140.0062  140.5812  162.9739 C.ar    1  UNL1        0.0419
     23 C         140.6820  141.5596  162.0597 C.ar    1  UNL1        0.0114
     24 C         140.6293  141.3579  160.5742 C.ar    1  UNL1        0.0381
     25 C         140.0589  140.7828  164.4593 C.1     1  UNL1       -0.0621
     26 C         140.1116  140.9844  165.9448 C.1     1  UNL1       -0.0597
     27 C         140.1419  141.6274  168.6002 C.3     1  UNL1        0.1561
     28 O         140.8197  142.6357  166.6453 O.3     1  UNL1       -0.3739
     29 C         139.5520  140.4229  168.8022 C.3     1  UNL1        0.1120
     30 N         139.1936  139.7018  168.9743 N.3     1  UNL1       -0.2699
     31 C         139.4951  140.5944  170.1415 C.3     1  UNL1        0.0723
     32 C         140.1474  141.9265  169.9181 C.3     1  UNL1        0.0207
     33 C         140.4983  142.3660  168.5275 C.3     1  UNL1        0.0404
     34 C         140.1968  141.4734  167.3603 C.3     1  UNL1        0.0207
     35 C         139.5444  140.1413  167.5837 C.3     1  UNL1        0.0723
     36 H         140.6216  142.0530  165.8954 H       1  UNL1        0.2115
@<TRIPOS>BOND
     1    12    13    1
     2    13    14    1
     3    14    15    1
     4    15    16    1
     5    16     8    1
     6     8     9   am
     7     9    10    2
     8     9     2    1
     9     2     3   ar
    10     3     4   ar
    11     4     5   ar
    12     5     1    1
    13     1    19    1
    14    19    20   ar
    15    20    21   ar
    16    21    22   ar
    17    22    25    1
    18    25    26    3
    19    26    27    1
    20    27    28    1
    21    27    29    1
    22    29    30    1
    23    30    31    1
    24    31    32    1
    25    32    33    1
    26    33    34    1
    27    34    35    1
    28    22    23   ar
    29    23    24   ar
    30     5     6   ar
    31     6     7   ar
    32    16    17    1
    33    17    18    1
    34    18    13    1
    35     7     2   ar
    36    24    19   ar
    37    33    27    1
    38    35    30    1
    39     8    11    1
    40    28    36    1
@<TRIPOS>MOLECULE
*****
 36 40 0 0 0
SMALL
GASTEIGER

@<TRIPOS>ATOM
      1 O         144.3249  141.7982  159.9861 O.3     1  UNL1       -0.4535
      2 C         142.8546  138.2489  157.6430 C.ar    1  UNL1        0.0536
      3 C         142.8959  138.1935  159.1414 C.ar    1  UNL1        0.0076
      4 C         143.3860  139.3766  159.9224 C.ar    1  UNL1        0.0376
      5 C         143.8348  140.6151  159.2051 C.ar    1  UNL1        0.1453
      6 C         143.7935  140.6705  157.7066 C.ar    1  UNL1        0.0376
      7 C         143.3034  139.4874  156.9256 C.ar    1  UNL1        0.0076
      8 N         143.3148  135.9659  156.4915 N.am    1  UNL1       -0.3024
      9 C         142.3645  137.0657  156.8619 C.2     1  UNL1        0.2458
     10 O         140.9242  136.9824  156.4515 O.2     1  UNL1       -0.2701
     11 H         144.2601  136.0206  156.7609 H       1  UNL1        0.1497
     12 C         141.3546  131.2331  153.3675 C.3     1  UNL1        0.0896
     13 N         141.8447  132.4163  154.1486 N.3     1  UNL1       -0.2714
     14 C         142.1425  133.7076  153.4458 C.3     1  UNL1        0.0738
     15 C         142.6326  134.8908  154.2267 C.3     1  UNL1        0.0369
     16 C         142.8247  134.7827  155.7104 C.3     1  UNL1        0.0746
     17 C         142.5269  133.4914  156.4132 C.3     1  UNL1        0.0369
     18 C         142.0368  132.3082  155.6322 C.3     1  UNL1        0.0738
     19 C         144.0228  141.9069  161.4514 C.ar    1  UNL1        0.1453
     20 C         145.0907  141.6084  162.4615 C.ar    1  UNL1        0.0381
     21 C         144.7888  141.7171  163.9267 C.ar    1  UNL1        0.0114
     22 C         143.4187  142.1244  164.3819 C.ar    1  UNL1        0.0419
     23 C         142.3508  142.4230  163.3718 C.ar    1  UNL1        0.0114
     24 C         142.6528  142.3143  161.9065 C.ar    1  UNL1        0.0381
     25 C         143.1167  142.2332  165.8471 C.1     1  UNL1       -0.0621
     26 C         142.8148  142.3420  167.3124 C.1     1  UNL1       -0.0597
     27 C         142.1190  142.2934  169.9542 C.3     1  UNL1        0.1561
     28 O         144.0233  142.7708  168.7527 O.3     1  UNL1       -0.3739
     29 C         140.8884  141.9161  169.5263 C.3     1  UNL1        0.1120
     30 N         140.1268  141.6856  169.3148 N.3     1  UNL1       -0.2699
     31 C         140.3940  141.8460  170.7820 C.3     1  UNL1        0.0723
     32 C         141.7549  142.2633  171.2552 C.3     1  UNL1        0.0207
     33 C         142.8485  142.5201  170.2612 C.3     1  UNL1        0.0404
     34 C         142.5813  142.3597  168.7940 C.3     1  UNL1        0.0207
     35 C         141.2204  141.9424  168.3208 C.3     1  UNL1        0.0723
     36 H         143.8430  142.6650  167.8055 H       1  UNL1        0.2115
@<TRIPOS>BOND
     1    12    13    1
     2    13    14    1
     3    14    15    1
     4    15    16    1
     5    16     8    1
     6     8     9   am
     7     9    10    2
     8     9     2    1
     9     2     3   ar
    10     3     4   ar
    11     4     5   ar
    12     5     1    1
    13     1    19    1
    14    19    20   ar
    15    20    21   ar
    16    21    22   ar
    17    22    25    1
    18    25    26    3
    19    26    27    1
    20    27    28    1
    21    27    29    1
    22    29    30    1
    23    30    31    1
    24    31    32    1
    25    32    33    1
    26    33    34    1
    27    34    35    1
    28    22    23   ar
    29    23    24   ar
    30     5     6   ar
    31     6     7   ar
    32    16    17    1
    33    17    18    1
    34    18    13    1
    35     7     2   ar
    36    24    19   ar
    37    33    27    1
    38    35    30    1
    39     8    11    1
    40    28    36    1
@<TRIPOS>MOLECULE
*****
 36 40 0 0 0
SMALL
GASTEIGER

@<TRIPOS>ATOM
      1 O         138.2160  139.5331  159.3084 O.3     1  UNL1       -0.4535
      2 C         138.4229  143.2914  156.8422 C.ar    1  UNL1        0.0536
      3 C         137.3720  142.2610  156.5525 C.ar    1  UNL1        0.0076
      4 C         137.3030  141.0083  157.3745 C.ar    1  UNL1        0.0376
      5 C         138.2850  140.7858  158.4864 C.ar    1  UNL1        0.1453
      6 C         139.3360  141.8162  158.7762 C.ar    1  UNL1        0.0376
      7 C         139.4049  143.0690  157.9540 C.ar    1  UNL1        0.0076
      8 N         139.4668  145.6254  156.3812 N.am    1  UNL1       -0.3024
      9 C         138.4919  144.5441  156.0201 C.2     1  UNL1        0.2458
     10 O         137.5860  144.7156  154.8370 O.2     1  UNL1       -0.2701
     11 H         140.0614  145.5128  157.1577 H       1  UNL1        0.1497
     12 C         139.7427  150.6366  153.0930 C.3     1  UNL1        0.0896
     13 N         139.6737  149.3838  153.9151 N.3     1  UNL1       -0.2714
     14 C         140.3595  148.1369  153.4408 C.3     1  UNL1        0.0738
     15 C         140.2905  146.8840  154.2629 C.3     1  UNL1        0.0369
     16 C         139.5358  146.8782  155.5591 C.3     1  UNL1        0.0746
     17 C         138.8500  148.1251  156.0334 C.3     1  UNL1        0.0369
     18 C         138.9190  149.3779  155.2114 C.3     1  UNL1        0.0738
     19 C         138.6362  139.5567  160.7482 C.ar    1  UNL1        0.1453
     20 C         137.7250  140.1421  161.7860 C.ar    1  UNL1        0.0381
     21 C         138.1452  140.1657  163.2257 C.ar    1  UNL1        0.0114
     22 C         139.4767  139.6039  163.6277 C.ar    1  UNL1        0.0419
     23 C         140.3879  139.0185  162.5900 C.ar    1  UNL1        0.0114
     24 C         139.9677  138.9949  161.1502 C.ar    1  UNL1        0.0381
     25 C         139.8968  139.6276  165.0674 C.1     1  UNL1       -0.0621
     26 C         140.3169  139.6511  166.5072 C.1     1  UNL1       -0.0597
     27 C         141.2603  139.9087  169.0585 C.3     1  UNL1        0.1561
     28 O         142.1793  139.5089  166.9865 O.3     1  UNL1       -0.3739
     29 C         139.9671  140.1060  169.4166 C.3     1  UNL1        0.1120
     30 N         139.1976  140.2309  169.6817 N.3     1  UNL1       -0.2699
     31 C         140.2766  140.2576  170.7233 C.3     1  UNL1        0.0723
     32 C         141.7068  140.0393  170.3273 C.3     1  UNL1        0.0207
     33 C         142.0580  139.7944  168.8897 C.3     1  UNL1        0.0404
     34 C         140.9790  139.7677  167.8481 C.3     1  UNL1        0.0207
     35 C         139.5488  139.9859  168.2441 C.3     1  UNL1        0.0723
     36 H         141.4762  139.4931  166.3185 H       1  UNL1        0.2115
@<TRIPOS>BOND
     1    12    13    1
     2    13    14    1
     3    14    15    1
     4    15    16    1
     5    16     8    1
     6     8     9   am
     7     9    10    2
     8     9     2    1
     9     2     3   ar
    10     3     4   ar
    11     4     5   ar
    12     5     1    1
    13     1    19    1
    14    19    20   ar
    15    20    21   ar
    16    21    22   ar
    17    22    25    1
    18    25    26    3
    19    26    27    1
    20    27    28    1
    21    27    29    1
    22    29    30    1
    23    30    31    1
    24    31    32    1
    25    32    33    1
    26    33    34    1
    27    34    35    1
    28    22    23   ar
    29    23    24   ar
    30     5     6   ar
    31     6     7   ar
    32    16    17    1
    33    17    18    1
    34    18    13    1
    35     7     2   ar
    36    24    19   ar
    37    33    27    1
    38    35    30    1
    39     8    11    1
    40    28    36    1
@<TRIPOS>MOLECULE
*****
 36 40 0 0 0
SMALL
GASTEIGER

@<TRIPOS>ATOM
      1 O         141.0783  144.2597  159.9414 O.3     1  UNL1       -0.4535
      2 C         144.4070  142.6123  157.4006 C.ar    1  UNL1        0.0536
      3 C         143.2330  143.2859  156.7541 C.ar    1  UNL1        0.0076
      4 C         142.1234  143.8350  157.6010 C.ar    1  UNL1        0.0376
      5 C         142.1878  143.7106  159.0944 C.ar    1  UNL1        0.1453
      6 C         143.3619  143.0370  159.7410 C.ar    1  UNL1        0.0376
      7 C         144.4715  142.4879  158.8940 C.ar    1  UNL1        0.0076
      8 N         146.5419  142.9887  155.9687 N.am    1  UNL1       -0.3024
      9 C         145.5166  142.0632  156.5536 C.2     1  UNL1        0.2458
     10 O         145.6008  140.5888  156.2915 O.2     1  UNL1       -0.2701
     11 H         146.4867  143.9565  156.1408 H       1  UNL1        0.1497
     12 C         150.9803  140.7926  152.5807 C.3     1  UNL1        0.0896
     13 N         149.8707  141.3417  153.4277 N.3     1  UNL1       -0.2714
     14 C         150.0204  141.3921  154.9193 C.3     1  UNL1        0.0738
     15 C         148.9109  141.9411  155.7664 C.3     1  UNL1        0.0369
     16 C         147.6516  142.4397  155.1217 C.3     1  UNL1        0.0746
     17 C         147.5018  142.3892  153.6301 C.3     1  UNL1        0.0369
     18 C         148.6114  141.8402  152.7830 C.3     1  UNL1        0.0738
     19 C         140.9408  143.8261  161.3707 C.ar    1  UNL1        0.1453
     20 C         140.2844  142.5176  161.6977 C.ar    1  UNL1        0.0381
     21 C         140.1468  142.0839  163.1270 C.ar    1  UNL1        0.0114
     22 C         140.6658  142.9588  164.2295 C.ar    1  UNL1        0.0419
     23 C         141.3222  144.2673  163.9025 C.ar    1  UNL1        0.0114
     24 C         141.4597  144.7010  162.4731 C.ar    1  UNL1        0.0381
     25 C         140.5282  142.5251  165.6588 C.1     1  UNL1       -0.0621
     26 C         140.3906  142.0916  167.0881 C.1     1  UNL1       -0.0597
     27 C         140.3263  141.0911  169.6298 C.3     1  UNL1        0.1561
     28 O         139.9142  140.2731  167.5182 O.3     1  UNL1       -0.3739
     29 C         140.7101  142.3300  170.0266 C.3     1  UNL1        0.1120
     30 N         140.9424  143.0654  170.3150 N.3     1  UNL1       -0.2699
     31 C         140.7250  141.9856  171.3333 C.3     1  UNL1        0.0723
     32 C         140.3006  140.6155  170.8945 C.3     1  UNL1        0.0207
     33 C         140.0936  140.3251  169.4375 C.3     1  UNL1        0.0404
     34 C         140.3110  141.4048  168.4193 C.3     1  UNL1        0.0207
     35 C         140.7354  142.7750  168.8580 C.3     1  UNL1        0.0723
     36 H         140.0567  140.9764  166.8656 H       1  UNL1        0.2115
@<TRIPOS>BOND
     1    12    13    1
     2    13    14    1
     3    14    15    1
     4    15    16    1
     5    16     8    1
     6     8     9   am
     7     9    10    2
     8     9     2    1
     9     2     3   ar
    10     3     4   ar
    11     4     5   ar
    12     5     1    1
    13     1    19    1
    14    19    20   ar
    15    20    21   ar
    16    21    22   ar
    17    22    25    1
    18    25    26    3
    19    26    27    1
    20    27    28    1
    21    27    29    1
    22    29    30    1
    23    30    31    1
    24    31    32    1
    25    32    33    1
    26    33    34    1
    27    34    35    1
    28    22    23   ar
    29    23    24   ar
    30     5     6   ar
    31     6     7   ar
    32    16    17    1
    33    17    18    1
    34    18    13    1
    35     7     2   ar
    36    24    19   ar
    37    33    27    1
    38    35    30    1
    39     8    11    1
    40    28    36    1
@<TRIPOS>MOLECULE
*****
 36 40 0 0 0
SMALL
GASTEIGER

@<TRIPOS>ATOM
      1 O         141.1257  138.5211  159.0751 O.3     1  UNL1       -0.4535
      2 C         144.4661  140.0362  156.4682 C.ar    1  UNL1        0.0536
      3 C         144.0949  140.7776  157.7182 C.ar    1  UNL1        0.0076
      4 C         142.9815  140.2726  158.5871 C.ar    1  UNL1        0.0376
      5 C         142.2391  139.0261  158.2062 C.ar    1  UNL1        0.1453
      6 C         142.6103  138.2847  156.9561 C.ar    1  UNL1        0.0376
      7 C         143.7238  138.7898  156.0871 C.ar    1  UNL1        0.0076
      8 N         146.5612  141.5374  156.1415 N.am    1  UNL1       -0.3024
      9 C         145.5795  140.5413  155.5992 C.2     1  UNL1        0.2458
     10 O         145.7113  140.0504  154.1880 O.2     1  UNL1       -0.2701
     11 H         146.4746  141.8597  157.0677 H       1  UNL1        0.1497
     12 C         151.0152  143.5580  152.6659 C.3     1  UNL1        0.0896
     13 N         149.9017  143.0528  153.5349 N.3     1  UNL1       -0.2714
     14 C         148.5133  143.5947  153.3653 C.3     1  UNL1        0.0738
     15 C         147.3998  143.0896  154.2342 C.3     1  UNL1        0.0369
     16 C         147.6747  142.0426  155.2726 C.3     1  UNL1        0.0746
     17 C         149.0630  141.5007  155.4421 C.3     1  UNL1        0.0369
     18 C         150.1766  142.0058  154.5732 C.3     1  UNL1        0.0738
     19 C         141.1722  138.7424  160.5580 C.ar    1  UNL1        0.1453
     20 C         142.0381  137.8717  161.4195 C.ar    1  UNL1        0.0381
     21 C         142.0846  138.0930  162.9023 C.ar    1  UNL1        0.0114
     22 C         141.2652  139.1851  163.5237 C.ar    1  UNL1        0.0419
     23 C         140.3994  140.0557  162.6623 C.ar    1  UNL1        0.0114
     24 C         140.3528  139.8344  161.1794 C.ar    1  UNL1        0.0381
     25 C         141.3117  139.4063  165.0066 C.1     1  UNL1       -0.0621
     26 C         141.3582  139.6277  166.4894 C.1     1  UNL1       -0.0597
     27 C         141.5652  139.7709  169.2101 C.3     1  UNL1        0.1561
     28 O         142.9782  139.2565  167.4675 O.3     1  UNL1       -0.3739
     29 C         140.2567  140.1277  169.1968 C.3     1  UNL1        0.1120
     30 N         139.4643  140.3475  169.2391 N.3     1  UNL1       -0.2699
     31 C         140.1997  140.2421  170.5422 C.3     1  UNL1        0.0723
     32 C         141.6468  139.8475  170.5569 C.3     1  UNL1        0.0207
     33 C         142.3584  139.5583  169.2685 C.3     1  UNL1        0.0404
     34 C         141.6230  139.6637  167.9654 C.3     1  UNL1        0.0207
     35 C         140.1760  140.0583  167.9507 C.3     1  UNL1        0.0723
     36 H         142.4960  139.3268  166.6288 H       1  UNL1        0.2115
@<TRIPOS>BOND
     1    12    13    1
     2    13    14    1
     3    14    15    1
     4    15    16    1
     5    16     8    1
     6     8     9   am
     7     9    10    2
     8     9     2    1
     9     2     3   ar
    10     3     4   ar
    11     4     5   ar
    12     5     1    1
    13     1    19    1
    14    19    20   ar
    15    20    21   ar
    16    21    22   ar
    17    22    25    1
    18    25    26    3
    19    26    27    1
    20    27    28    1
    21    27    29    1
    22    29    30    1
    23    30    31    1
    24    31    32    1
    25    32    33    1
    26    33    34    1
    27    34    35    1
    28    22    23   ar
    29    23    24   ar
    30     5     6   ar
    31     6     7   ar
    32    16    17    1
    33    17    18    1
    34    18    13    1
    35     7     2   ar
    36    24    19   ar
    37    33    27    1
    38    35    30    1
    39     8    11    1
    40    28    36    1
