@<TRIPOS>MOLECULE
*****
 45 48 0 0 0
SMALL
GASTEIGER

@<TRIPOS>ATOM
      1 C         141.3284  144.6890  162.2619 C.3     1  UNL1        0.0412
      2 C         140.6214  145.1207  161.0113 C.3     1  UNL1        0.0249
      3 C         141.3264  144.4994  159.8422 C.3     1  UNL1        0.0935
      4 N         142.4691  143.6837  160.3701 N.am    1  UNL1       -0.2795
      5 C         143.4401  142.8901  159.5471 C.2     1  UNL1        0.2256
      6 O         143.3133  142.8672  158.0526 O.2     1  UNL1       -0.2749
      7 C         142.4703  143.8008  161.8655 C.3     1  UNL1        0.0951
      8 C         140.9584  145.0772  163.6627 C.3     1  UNL1        0.0914
      9 O         138.5916  143.2355  163.7403 O.2     1  UNL1       -0.2701
     10 C         139.6757  143.1074  164.7691 C.2     1  UNL1        0.2458
     11 N         140.8591  144.0282  164.7303 N.am    1  UNL1       -0.3008
     12 H         141.5706  143.9442  165.4055 H       1  UNL1        0.1497
     13 C         139.5764  142.0584  165.8367 C.ar    1  UNL1        0.0533
     14 C         140.0004  142.3744  167.2405 C.ar    1  UNL1        0.0083
     15 C         139.9011  141.3254  168.3081 C.ar    1  UNL1        0.0715
     16 C         139.3777  139.9604  167.9720 C.ar    1  UNL1        0.0077
     17 C         138.9536  139.6444  166.5683 C.ar    1  UNL1        0.0715
     18 C         139.0530  140.6934  165.5007 C.ar    1  UNL1        0.0083
     19 C         140.3251  141.6414  169.7117 C.3     1  UNL1        0.4186
     20 F         140.7492  141.9573  171.1154 F       1  UNL1       -0.1659
     21 F         139.9676  143.0820  169.4955 F       1  UNL1       -0.1659
     22 F         140.6827  140.2007  169.9280 F       1  UNL1       -0.1659
     23 C         138.4303  138.2795  166.2322 C.3     1  UNL1        0.4186
     24 F         137.9069  136.9145  165.8961 F       1  UNL1       -0.1659
     25 F         139.5406  138.0980  165.2401 F       1  UNL1       -0.1659
     26 F         137.3200  138.4609  167.2243 F       1  UNL1       -0.1659
     27 C         144.5379  142.1193  160.2185 C.3     1  UNL1        0.0853
     28 C         144.2172  141.1892  161.3507 C.3     1  UNL1        0.0096
     29 C         144.1926  139.7073  161.1198 C.3     1  UNL1        0.0012
     30 C         143.6250  138.7945  162.1662 C.3     1  UNL1        0.0087
     31 C         142.4622  139.2422  163.0012 C.3     1  UNL1        0.0446
     32 C         142.6737  139.6320  164.4342 C.ar    1  UNL1       -0.0183
     33 C         142.5952  138.5933  165.5134 C.ar    1  UNL1       -0.0017
     34 C         142.8068  138.9831  166.9463 C.ar    1  UNL1        0.0293
     35 C         143.0969  140.4117  167.2999 C.ar    1  UNL1        0.1401
     36 F         143.3084  140.8015  168.7329 F       1  UNL1       -0.2042
     37 C         143.1754  141.4504  166.2207 C.ar    1  UNL1        0.0293
     38 C         142.9638  141.0606  164.7878 C.ar    1  UNL1       -0.0017
     39 C         141.0877  139.3002  162.4033 C.ar    1  UNL1       -0.0183
     40 C         140.4867  140.6232  162.0316 C.ar    1  UNL1       -0.0017
     41 C         139.1122  140.6812  161.4337 C.ar    1  UNL1        0.0293
     42 C         138.3388  139.4161  161.2075 C.ar    1  UNL1        0.1401
     43 F         136.9643  139.4740  160.6096 F       1  UNL1       -0.2042
     44 C         138.9398  138.0929  161.5792 C.ar    1  UNL1        0.0293
     45 C         140.3143  138.0350  162.1771 C.ar    1  UNL1       -0.0017
@<TRIPOS>BOND
     1     9    10    2
     2    10    11   am
     3    11     8    1
     4     1     8    1
     5     1     2    1
     6     2     3    1
     7     3     4    1
     8     4     5   am
     9     5     6    2
    10     5    27    1
    11    27    28    1
    12    28    29    1
    13    29    30    1
    14    30    31    1
    15    31    32    1
    16    32    33   ar
    17    33    34   ar
    18    34    35   ar
    19    35    36    1
    20    35    37   ar
    21    37    38   ar
    22    31    39    1
    23    39    40   ar
    24    40    41   ar
    25    41    42   ar
    26    42    43    1
    27    42    44   ar
    28    44    45   ar
    29     4     7    1
    30    10    13    1
    31    13    14   ar
    32    14    15   ar
    33    15    19    1
    34    19    20    1
    35    19    21    1
    36    19    22    1
    37    15    16   ar
    38    16    17   ar
    39    17    23    1
    40    23    24    1
    41    23    25    1
    42    23    26    1
    43    17    18   ar
    44     7     1    1
    45    18    13   ar
    46    38    32   ar
    47    45    39   ar
    48    11    12    1
@<TRIPOS>MOLECULE
*****
 45 48 0 0 0
SMALL
GASTEIGER

@<TRIPOS>ATOM
      1 C         140.5877  144.9211  161.2973 C.3     1  UNL1        0.0412
      2 C         140.3954  145.6201  159.9841 C.3     1  UNL1        0.0249
      3 C         141.3474  145.0170  158.9942 C.3     1  UNL1        0.0935
      4 N         142.1280  143.9452  159.6955 N.am    1  UNL1       -0.2795
      5 C         143.1914  143.0839  159.0813 C.2     1  UNL1        0.2256
      6 O         143.5566  143.2586  157.6369 O.2     1  UNL1       -0.2749
      7 C         141.6585  143.8859  161.1189 C.3     1  UNL1        0.0951
      8 C         139.8404  145.2070  162.5661 C.3     1  UNL1        0.0914
      9 O         138.0568  142.8205  162.9173 O.2     1  UNL1       -0.2701
     10 C         139.1210  143.1173  163.9320 C.2     1  UNL1        0.2458
     11 N         140.0128  144.3105  163.7563 N.am    1  UNL1       -0.3008
     12 H         140.7112  144.5053  164.4223 H       1  UNL1        0.1497
     13 C         139.2934  142.2209  165.1222 C.ar    1  UNL1        0.0533
     14 C         138.8363  140.7935  165.0586 C.ar    1  UNL1        0.0083
     15 C         139.0087  139.8971  166.2488 C.ar    1  UNL1        0.0715
     16 C         139.6381  140.4279  167.5027 C.ar    1  UNL1        0.0077
     17 C         140.0951  141.8552  167.5663 C.ar    1  UNL1        0.0715
     18 C         139.9227  142.7517  166.3761 C.ar    1  UNL1        0.0083
     19 C         138.5517  138.4699  166.1852 C.3     1  UNL1        0.4186
     20 F         138.0946  137.0426  166.1216 F       1  UNL1       -0.1659
     21 F         139.8095  138.0995  165.4567 F       1  UNL1       -0.1659
     22 F         137.2938  138.8402  166.9137 F       1  UNL1       -0.1659
     23 C         140.7244  142.3860  168.8201 C.3     1  UNL1        0.4186
     24 F         141.3538  142.9168  170.0740 F       1  UNL1       -0.1659
     25 F         140.0845  143.7206  168.5764 F       1  UNL1       -0.1659
     26 F         141.3644  141.0515  169.0639 F       1  UNL1       -0.1659
     27 C         143.8897  142.0479  159.9114 C.3     1  UNL1        0.0853
     28 C         143.5667  140.5950  159.7250 C.3     1  UNL1        0.0096
     29 C         144.1357  139.5737  160.6648 C.3     1  UNL1        0.0012
     30 C         143.2269  138.8079  161.5801 C.3     1  UNL1        0.0087
     31 C         142.1714  139.5293  162.3647 C.3     1  UNL1        0.0446
     32 C         140.7421  139.4910  161.9110 C.ar    1  UNL1       -0.0183
     33 C         139.8593  138.3455  162.3090 C.ar    1  UNL1       -0.0017
     34 C         138.4301  138.3073  161.8553 C.ar    1  UNL1        0.0293
     35 C         137.8837  139.4146  161.0037 C.ar    1  UNL1        0.1401
     36 F         136.4544  139.3763  160.5500 F       1  UNL1       -0.2042
     37 C         138.7665  140.5601  160.6057 C.ar    1  UNL1        0.0293
     38 C         140.1957  140.5983  161.0593 C.ar    1  UNL1       -0.0017
     39 C         142.5452  140.2889  163.6029 C.ar    1  UNL1       -0.0183
     40 C         142.6710  139.5709  164.9139 C.ar    1  UNL1       -0.0017
     41 C         143.0447  140.3305  166.1522 C.ar    1  UNL1        0.0293
     42 C         143.2926  141.8081  166.0795 C.ar    1  UNL1        0.1401
     43 F         143.6663  142.5677  167.3178 F       1  UNL1       -0.2042
     44 C         143.1668  142.5261  164.7685 C.ar    1  UNL1        0.0293
     45 C         142.7930  141.7665  163.5302 C.ar    1  UNL1       -0.0017
@<TRIPOS>BOND
     1     9    10    2
     2    10    11   am
     3    11     8    1
     4     1     8    1
     5     1     2    1
     6     2     3    1
     7     3     4    1
     8     4     5   am
     9     5     6    2
    10     5    27    1
    11    27    28    1
    12    28    29    1
    13    29    30    1
    14    30    31    1
    15    31    32    1
    16    32    33   ar
    17    33    34   ar
    18    34    35   ar
    19    35    36    1
    20    35    37   ar
    21    37    38   ar
    22    31    39    1
    23    39    40   ar
    24    40    41   ar
    25    41    42   ar
    26    42    43    1
    27    42    44   ar
    28    44    45   ar
    29     4     7    1
    30    10    13    1
    31    13    14   ar
    32    14    15   ar
    33    15    19    1
    34    19    20    1
    35    19    21    1
    36    19    22    1
    37    15    16   ar
    38    16    17   ar
    39    17    23    1
    40    23    24    1
    41    23    25    1
    42    23    26    1
    43    17    18   ar
    44     7     1    1
    45    18    13   ar
    46    38    32   ar
    47    45    39   ar
    48    11    12    1
@<TRIPOS>MOLECULE
*****
 45 48 0 0 0
SMALL
GASTEIGER

@<TRIPOS>ATOM
      1 C         140.6523  145.0425  160.9501 C.3     1  UNL1        0.0412
      2 C         140.2735  145.6459  159.6300 C.3     1  UNL1        0.0249
      3 C         141.1384  145.0270  158.5722 C.3     1  UNL1        0.0935
      4 N         142.0518  144.0412  159.2384 N.am    1  UNL1       -0.2795
      5 C         143.0843  143.1945  158.5551 C.2     1  UNL1        0.2256
      6 O         143.2724  143.2937  157.0702 O.2     1  UNL1       -0.2749
      7 C         141.7514  144.0508  160.7080 C.3     1  UNL1        0.0951
      8 C         140.0397  145.3729  162.2788 C.3     1  UNL1        0.0914
      9 O         137.9689  143.3027  162.9313 O.2     1  UNL1       -0.2701
     10 C         139.2051  143.4182  163.7730 C.2     1  UNL1        0.2458
     11 N         140.2405  144.4533  163.4467 N.am    1  UNL1       -0.3008
     12 H         141.0519  144.5291  163.9991 H       1  UNL1        0.1497
     13 C         139.4059  142.4986  164.9409 C.ar    1  UNL1        0.0533
     14 C         139.9891  143.0253  166.2186 C.ar    1  UNL1        0.0083
     15 C         140.1899  142.1058  167.3866 C.ar    1  UNL1        0.0715
     16 C         139.8075  140.6594  167.2768 C.ar    1  UNL1        0.0077
     17 C         139.2244  140.1327  165.9991 C.ar    1  UNL1        0.0715
     18 C         139.0236  141.0523  164.8311 C.ar    1  UNL1        0.0083
     19 C         140.7731  142.6325  168.6642 C.3     1  UNL1        0.4186
     20 F         141.3562  143.1593  169.9418 F       1  UNL1       -0.1659
     21 F         141.5207  141.3459  168.8535 F       1  UNL1       -0.1659
     22 F         140.0255  143.9191  168.4749 F       1  UNL1       -0.1659
     23 C         138.8420  138.6865  165.8893 C.3     1  UNL1        0.4186
     24 F         138.4597  137.2402  165.7795 F       1  UNL1       -0.1659
     25 F         137.4422  139.0247  166.3088 F       1  UNL1       -0.1659
     26 F         140.2419  138.3482  165.4698 F       1  UNL1       -0.1659
     27 C         143.9287  142.2486  159.3566 C.3     1  UNL1        0.0853
     28 C         143.4852  140.8291  159.5522 C.3     1  UNL1        0.0096
     29 C         144.1912  139.9528  160.5440 C.3     1  UNL1        0.0012
     30 C         143.3980  139.1113  161.4994 C.3     1  UNL1        0.0087
     31 C         142.3292  139.7400  162.3433 C.3     1  UNL1        0.0446
     32 C         140.8875  139.6035  161.9522 C.ar    1  UNL1       -0.0183
     33 C         140.1401  138.3426  162.2709 C.ar    1  UNL1       -0.0017
     34 C         138.6985  138.2061  161.8798 C.ar    1  UNL1        0.0293
     35 C         138.0042  139.3305  161.1701 C.ar    1  UNL1        0.1401
     36 F         136.5625  139.1940  160.7790 F       1  UNL1       -0.2042
     37 C         138.7515  140.5914  160.8514 C.ar    1  UNL1        0.0293
     38 C         140.1932  140.7279  161.2425 C.ar    1  UNL1       -0.0017
     39 C         142.7020  140.5053  163.5784 C.ar    1  UNL1       -0.0183
     40 C         142.9014  139.7821  164.8773 C.ar    1  UNL1       -0.0017
     41 C         143.2742  140.5474  166.1123 C.ar    1  UNL1        0.0293
     42 C         143.4476  142.0360  166.0485 C.ar    1  UNL1        0.1401
     43 F         143.8204  142.8013  167.2835 F       1  UNL1       -0.2042
     44 C         143.2482  142.7593  164.7495 C.ar    1  UNL1        0.0293
     45 C         142.8754  141.9940  163.5145 C.ar    1  UNL1       -0.0017
@<TRIPOS>BOND
     1     9    10    2
     2    10    11   am
     3    11     8    1
     4     1     8    1
     5     1     2    1
     6     2     3    1
     7     3     4    1
     8     4     5   am
     9     5     6    2
    10     5    27    1
    11    27    28    1
    12    28    29    1
    13    29    30    1
    14    30    31    1
    15    31    32    1
    16    32    33   ar
    17    33    34   ar
    18    34    35   ar
    19    35    36    1
    20    35    37   ar
    21    37    38   ar
    22    31    39    1
    23    39    40   ar
    24    40    41   ar
    25    41    42   ar
    26    42    43    1
    27    42    44   ar
    28    44    45   ar
    29     4     7    1
    30    10    13    1
    31    13    14   ar
    32    14    15   ar
    33    15    19    1
    34    19    20    1
    35    19    21    1
    36    19    22    1
    37    15    16   ar
    38    16    17   ar
    39    17    23    1
    40    23    24    1
    41    23    25    1
    42    23    26    1
    43    17    18   ar
    44     7     1    1
    45    18    13   ar
    46    38    32   ar
    47    45    39   ar
    48    11    12    1
@<TRIPOS>MOLECULE
*****
 45 48 0 0 0
SMALL
GASTEIGER

@<TRIPOS>ATOM
      1 C         139.8525  144.6842  161.8907 C.3     1  UNL1        0.0412
      2 C         140.5773  145.5017  160.8628 C.3     1  UNL1        0.0249
      3 C         140.4293  144.8163  159.5368 C.3     1  UNL1        0.0935
      4 N         139.6130  143.5752  159.7451 N.am    1  UNL1       -0.2795
      5 C         139.2219  142.5889  158.6848 C.2     1  UNL1        0.2256
      6 O         139.6540  142.8037  157.2646 O.2     1  UNL1       -0.2749
      7 C         139.2565  143.4936  161.1999 C.3     1  UNL1        0.0951
      8 C         139.7429  145.0016  163.3526 C.3     1  UNL1        0.0914
      9 O         142.3829  144.0784  164.4378 O.2     1  UNL1       -0.2701
     10 C         141.1123  143.4350  164.9084 C.2     1  UNL1        0.2458
     11 N         139.7923  143.8966  164.3658 N.am    1  UNL1       -0.3008
     12 H         138.9583  143.4743  164.6746 H       1  UNL1        0.1497
     13 C         141.1616  142.3300  165.9216 C.ar    1  UNL1        0.0533
     14 C         140.3337  142.4189  167.1693 C.ar    1  UNL1        0.0083
     15 C         140.3831  141.3139  168.1825 C.ar    1  UNL1        0.0715
     16 C         141.2604  140.1199  167.9480 C.ar    1  UNL1        0.0077
     17 C         142.0882  140.0310  166.7003 C.ar    1  UNL1        0.0715
     18 C         142.0388  141.1361  165.6871 C.ar    1  UNL1        0.0083
     19 C         139.5552  141.4029  169.4301 C.3     1  UNL1        0.4186
     20 F         138.7273  141.4918  170.6778 F       1  UNL1       -0.1659
     21 F         139.8655  142.8669  169.5317 F       1  UNL1       -0.1659
     22 F         139.2449  139.9388  169.3286 F       1  UNL1       -0.1659
     23 C         142.9654  138.8371  166.4658 C.3     1  UNL1        0.4186
     24 F         143.8426  137.6432  166.2312 F       1  UNL1       -0.1659
     25 F         142.8631  139.0528  164.9849 F       1  UNL1       -0.1659
     26 F         143.0677  138.6214  167.9466 F       1  UNL1       -0.1659
     27 C         138.3986  141.3877  159.0448 C.3     1  UNL1        0.0853
     28 C         139.0194  140.0223  159.0335 C.3     1  UNL1        0.0096
     29 C         138.7182  139.0524  160.1374 C.3     1  UNL1        0.0012
     30 C         139.8400  138.4125  160.9004 C.3     1  UNL1        0.0087
     31 C         140.4145  139.0977  162.1048 C.3     1  UNL1        0.0446
     32 C         141.7080  139.8492  161.9943 C.ar    1  UNL1       -0.0183
     33 C         143.0107  139.1057  162.0065 C.ar    1  UNL1       -0.0017
     34 C         144.3041  139.8573  161.8961 C.ar    1  UNL1        0.0293
     35 C         144.2948  141.3522  161.7735 C.ar    1  UNL1        0.1401
     36 F         145.5884  142.1037  161.6631 F       1  UNL1       -0.2042
     37 C         142.9921  142.0956  161.7613 C.ar    1  UNL1        0.0293
     38 C         141.6987  141.3441  161.8717 C.ar    1  UNL1       -0.0017
     39 C         139.6955  139.0313  163.4196 C.ar    1  UNL1       -0.0183
     40 C         138.8881  140.2035  163.8928 C.ar    1  UNL1       -0.0017
     41 C         138.1691  140.1372  165.2076 C.ar    1  UNL1        0.0293
     42 C         138.2576  138.8987  166.0492 C.ar    1  UNL1        0.1401
     43 F         137.5387  138.8324  167.3640 F       1  UNL1       -0.2042
     44 C         139.0651  137.7264  165.5759 C.ar    1  UNL1        0.0293
     45 C         139.7841  137.7928  164.2611 C.ar    1  UNL1       -0.0017
@<TRIPOS>BOND
     1     9    10    2
     2    10    11   am
     3    11     8    1
     4     1     8    1
     5     1     2    1
     6     2     3    1
     7     3     4    1
     8     4     5   am
     9     5     6    2
    10     5    27    1
    11    27    28    1
    12    28    29    1
    13    29    30    1
    14    30    31    1
    15    31    32    1
    16    32    33   ar
    17    33    34   ar
    18    34    35   ar
    19    35    36    1
    20    35    37   ar
    21    37    38   ar
    22    31    39    1
    23    39    40   ar
    24    40    41   ar
    25    41    42   ar
    26    42    43    1
    27    42    44   ar
    28    44    45   ar
    29     4     7    1
    30    10    13    1
    31    13    14   ar
    32    14    15   ar
    33    15    19    1
    34    19    20    1
    35    19    21    1
    36    19    22    1
    37    15    16   ar
    38    16    17   ar
    39    17    23    1
    40    23    24    1
    41    23    25    1
    42    23    26    1
    43    17    18   ar
    44     7     1    1
    45    18    13   ar
    46    38    32   ar
    47    45    39   ar
    48    11    12    1
@<TRIPOS>MOLECULE
*****
 45 48 0 0 0
SMALL
GASTEIGER

@<TRIPOS>ATOM
      1 C         141.3871  144.7307  162.1529 C.3     1  UNL1        0.0412
      2 C         140.5575  145.2024  160.9955 C.3     1  UNL1        0.0249
      3 C         141.0824  144.5482  159.7520 C.3     1  UNL1        0.0935
      4 N         142.2364  143.6723  160.1407 N.am    1  UNL1       -0.2795
      5 C         143.0578  142.8312  159.2091 C.2     1  UNL1        0.2256
      6 O         142.7501  142.8191  157.7411 O.2     1  UNL1       -0.2749
      7 C         142.4247  143.7851  161.6246 C.3     1  UNL1        0.0951
      8 C         141.2101  145.1340  163.5868 C.3     1  UNL1        0.0914
      9 O         138.6522  143.5945  163.8820 O.2     1  UNL1       -0.2701
     10 C         139.8061  143.3146  164.7987 C.2     1  UNL1        0.2458
     11 N         141.0850  144.0844  164.6511 N.am    1  UNL1       -0.3008
     12 H         141.8423  143.9007  165.2528 H       1  UNL1        0.1497
     13 C         139.6809  142.2650  165.8630 C.ar    1  UNL1        0.0533
     14 C         139.1670  140.8998  165.5133 C.ar    1  UNL1        0.0083
     15 C         139.0419  139.8502  166.5776 C.ar    1  UNL1        0.0715
     16 C         139.4307  140.1658  167.9916 C.ar    1  UNL1        0.0077
     17 C         139.9446  141.5310  168.3413 C.ar    1  UNL1        0.0715
     18 C         140.0697  142.5806  167.2770 C.ar    1  UNL1        0.0083
     19 C         138.5281  138.4851  166.2279 C.3     1  UNL1        0.4186
     20 F         138.0142  137.1200  165.8781 F       1  UNL1       -0.1659
     21 F         137.2901  138.7444  167.0343 F       1  UNL1       -0.1659
     22 F         139.7660  138.2257  165.4214 F       1  UNL1       -0.1659
     23 C         140.3333  141.8465  169.7552 C.3     1  UNL1        0.4186
     24 F         140.7221  142.1621  171.1691 F       1  UNL1       -0.1659
     25 F         139.3474  140.8315  170.2528 F       1  UNL1       -0.1659
     26 F         141.3192  142.8616  169.2576 F       1  UNL1       -0.1659
     27 C         144.1870  142.0022  159.7456 C.3     1  UNL1        0.0853
     28 C         143.9292  140.6047  160.2257 C.3     1  UNL1        0.0096
     29 C         144.4156  140.1745  161.5778 C.3     1  UNL1        0.0012
     30 C         143.7141  139.0694  162.3106 C.3     1  UNL1        0.0087
     31 C         142.5285  139.3778  163.1761 C.3     1  UNL1        0.0446
     32 C         142.7240  139.7074  164.6264 C.ar    1  UNL1       -0.0183
     33 C         142.9802  141.1247  165.0454 C.ar    1  UNL1       -0.0017
     34 C         143.1757  141.4542  166.4956 C.ar    1  UNL1        0.0293
     35 C         143.1150  140.3665  167.5268 C.ar    1  UNL1        0.1401
     36 F         143.3105  140.6962  168.9770 F       1  UNL1       -0.2042
     37 C         142.8588  138.9493  167.1077 C.ar    1  UNL1        0.0293
     38 C         142.6633  138.6197  165.6575 C.ar    1  UNL1       -0.0017
     39 C         141.1473  139.3566  162.5914 C.ar    1  UNL1       -0.0183
     40 C         140.5193  140.6289  162.1048 C.ar    1  UNL1       -0.0017
     41 C         139.1381  140.6077  161.5201 C.ar    1  UNL1        0.0293
     42 C         138.3849  139.3142  161.4220 C.ar    1  UNL1        0.1401
     43 F         137.0038  139.2930  160.8373 F       1  UNL1       -0.2042
     44 C         139.0130  138.0418  161.9086 C.ar    1  UNL1        0.0293
     45 C         140.3942  138.0630  162.4933 C.ar    1  UNL1       -0.0017
@<TRIPOS>BOND
     1     9    10    2
     2    10    11   am
     3    11     8    1
     4     1     8    1
     5     1     2    1
     6     2     3    1
     7     3     4    1
     8     4     5   am
     9     5     6    2
    10     5    27    1
    11    27    28    1
    12    28    29    1
    13    29    30    1
    14    30    31    1
    15    31    32    1
    16    32    33   ar
    17    33    34   ar
    18    34    35   ar
    19    35    36    1
    20    35    37   ar
    21    37    38   ar
    22    31    39    1
    23    39    40   ar
    24    40    41   ar
    25    41    42   ar
    26    42    43    1
    27    42    44   ar
    28    44    45   ar
    29     4     7    1
    30    10    13    1
    31    13    14   ar
    32    14    15   ar
    33    15    19    1
    34    19    20    1
    35    19    21    1
    36    19    22    1
    37    15    16   ar
    38    16    17   ar
    39    17    23    1
    40    23    24    1
    41    23    25    1
    42    23    26    1
    43    17    18   ar
    44     7     1    1
    45    18    13   ar
    46    38    32   ar
    47    45    39   ar
    48    11    12    1
@<TRIPOS>MOLECULE
*****
 45 48 0 0 0
SMALL
GASTEIGER

@<TRIPOS>ATOM
      1 C         139.7975  144.4444  161.2719 C.3     1  UNL1        0.0412
      2 C         140.2382  145.6976  160.5753 C.3     1  UNL1        0.0249
      3 C         141.2493  145.3183  159.5342 C.3     1  UNL1        0.0935
      4 N         141.4334  143.8306  159.5873 N.am    1  UNL1       -0.2795
      5 C         142.3533  143.0245  158.7189 C.2     1  UNL1        0.2256
      6 O         143.1948  143.7068  157.6815 O.2     1  UNL1       -0.2749
      7 C         140.5362  143.2905  160.6612 C.3     1  UNL1        0.0951
      8 C         138.7943  144.3598  162.3838 C.3     1  UNL1        0.0914
      9 O         138.2682  141.4117  162.5614 O.2     1  UNL1       -0.2701
     10 C         138.8659  142.1386  163.7295 C.2     1  UNL1        0.2458
     11 N         139.1290  143.6126  163.6407 N.am    1  UNL1       -0.3008
     12 H         139.5212  144.0897  164.4074 H       1  UNL1        0.1497
     13 C         139.2005  141.3914  164.9864 C.ar    1  UNL1        0.0533
     14 C         140.4788  141.6838  165.7150 C.ar    1  UNL1        0.0083
     15 C         140.8134  140.9366  166.9719 C.ar    1  UNL1        0.0715
     16 C         139.8698  139.8970  167.5002 C.ar    1  UNL1        0.0077
     17 C         138.5917  139.6046  166.7715 C.ar    1  UNL1        0.0715
     18 C         138.2571  140.3518  165.5147 C.ar    1  UNL1        0.0083
     19 C         142.0915  141.2290  167.7004 C.3     1  UNL1        0.4186
     20 F         143.3696  141.5215  168.4290 F       1  UNL1       -0.1659
     21 F         142.4335  139.7686  167.6867 F       1  UNL1       -0.1659
     22 F         141.7495  142.6895  167.7142 F       1  UNL1       -0.1659
     23 C         137.6482  138.5650  167.2998 C.3     1  UNL1        0.4186
     24 F         136.7047  137.5255  167.8281 F       1  UNL1       -0.1659
     25 F         137.7229  139.1893  168.6617 F       1  UNL1       -0.1659
     26 F         137.5735  137.9408  165.9379 F       1  UNL1       -0.1659
     27 C         142.4316  141.5361  158.8879 C.3     1  UNL1        0.0853
     28 C         143.7415  140.8874  159.2244 C.3     1  UNL1        0.0096
     29 C         143.7882  139.7604  160.2132 C.3     1  UNL1        0.0012
     30 C         144.4127  139.9705  161.5608 C.3     1  UNL1        0.0087
     31 C         143.5669  140.4092  162.7192 C.3     1  UNL1        0.0446
     32 C         142.5707  139.4631  163.3214 C.ar    1  UNL1       -0.0183
     33 C         141.2141  139.3073  162.7006 C.ar    1  UNL1       -0.0017
     34 C         140.2180  138.3612  163.3028 C.ar    1  UNL1        0.0293
     35 C         140.5784  137.5709  164.5257 C.ar    1  UNL1        0.1401
     36 F         139.5822  136.6248  165.1278 F       1  UNL1       -0.2042
     37 C         141.9350  137.7267  165.1464 C.ar    1  UNL1        0.0293
     38 C         142.9311  138.6728  164.5443 C.ar    1  UNL1       -0.0017
     39 C         143.7171  141.7941  163.2756 C.ar    1  UNL1       -0.0183
     40 C         143.4864  142.9856  162.3941 C.ar    1  UNL1       -0.0017
     41 C         143.6367  144.3705  162.9504 C.ar    1  UNL1        0.0293
     42 C         144.0177  144.5639  164.3883 C.ar    1  UNL1        0.1401
     43 F         144.1680  145.9487  164.9446 F       1  UNL1       -0.2042
     44 C         144.2485  143.3723  165.2698 C.ar    1  UNL1        0.0293
     45 C         144.0982  141.9875  164.7135 C.ar    1  UNL1       -0.0017
@<TRIPOS>BOND
     1     9    10    2
     2    10    11   am
     3    11     8    1
     4     1     8    1
     5     1     2    1
     6     2     3    1
     7     3     4    1
     8     4     5   am
     9     5     6    2
    10     5    27    1
    11    27    28    1
    12    28    29    1
    13    29    30    1
    14    30    31    1
    15    31    32    1
    16    32    33   ar
    17    33    34   ar
    18    34    35   ar
    19    35    36    1
    20    35    37   ar
    21    37    38   ar
    22    31    39    1
    23    39    40   ar
    24    40    41   ar
    25    41    42   ar
    26    42    43    1
    27    42    44   ar
    28    44    45   ar
    29     4     7    1
    30    10    13    1
    31    13    14   ar
    32    14    15   ar
    33    15    19    1
    34    19    20    1
    35    19    21    1
    36    19    22    1
    37    15    16   ar
    38    16    17   ar
    39    17    23    1
    40    23    24    1
    41    23    25    1
    42    23    26    1
    43    17    18   ar
    44     7     1    1
    45    18    13   ar
    46    38    32   ar
    47    45    39   ar
    48    11    12    1
@<TRIPOS>MOLECULE
*****
 45 48 0 0 0
SMALL
GASTEIGER

@<TRIPOS>ATOM
      1 C         139.7353  144.6282  161.7347 C.3     1  UNL1        0.0412
      2 C         140.3511  145.4549  160.6450 C.3     1  UNL1        0.0249
      3 C         140.2288  144.6922  159.3592 C.3     1  UNL1        0.0935
      4 N         139.5374  143.3942  159.6542 N.am    1  UNL1       -0.2795
      5 C         139.2087  142.3237  158.6563 C.2     1  UNL1        0.2256
      6 O         139.5776  142.5043  157.2136 O.2     1  UNL1       -0.2749
      7 C         139.2324  143.3546  161.1223 C.3     1  UNL1        0.0951
      8 C         139.6393  145.0084  163.1826 C.3     1  UNL1        0.0914
      9 O         142.2971  144.0426  164.1841 O.2     1  UNL1       -0.2701
     10 C         141.0303  143.4655  164.7429 C.2     1  UNL1        0.2458
     11 N         139.7014  143.9484  164.2421 N.am    1  UNL1       -0.3008
     12 H         138.8700  143.5696  164.6088 H       1  UNL1        0.1497
     13 C         141.0924  142.4054  165.8024 C.ar    1  UNL1        0.0533
     14 C         140.3161  142.5709  167.0752 C.ar    1  UNL1        0.0083
     15 C         140.3782  141.5109  168.1347 C.ar    1  UNL1        0.0715
     16 C         141.2166  140.2854  167.9214 C.ar    1  UNL1        0.0077
     17 C         141.9928  140.1200  166.6485 C.ar    1  UNL1        0.0715
     18 C         141.9307  141.1800  165.5890 C.ar    1  UNL1        0.0083
     19 C         139.6020  141.6763  169.4075 C.3     1  UNL1        0.4186
     20 F         138.8257  141.8417  170.6803 F       1  UNL1       -0.1659
     21 F         140.1201  143.0776  169.5414 F       1  UNL1       -0.1659
     22 F         139.0838  140.2750  169.2736 F       1  UNL1       -0.1659
     23 C         142.8311  138.8946  166.4352 C.3     1  UNL1        0.4186
     24 F         143.6694  137.6691  166.2219 F       1  UNL1       -0.1659
     25 F         142.4695  138.9006  164.9795 F       1  UNL1       -0.1659
     26 F         143.1928  138.8885  167.8909 F       1  UNL1       -0.1659
     27 C         138.5110  141.0724  159.1010 C.3     1  UNL1        0.0853
     28 C         138.9915  139.7349  158.6214 C.3     1  UNL1        0.0096
     29 C         139.9534  138.9408  159.4544 C.3     1  UNL1        0.0012
     30 C         139.5554  138.4801  160.8254 C.3     1  UNL1        0.0087
     31 C         140.1976  139.0883  162.0368 C.3     1  UNL1        0.0446
     32 C         139.5282  138.9799  163.3748 C.ar    1  UNL1       -0.0183
     33 C         138.8521  140.1772  163.9743 C.ar    1  UNL1       -0.0017
     34 C         138.1827  140.0687  165.3123 C.ar    1  UNL1        0.0293
     35 C         138.1894  138.7631  166.0506 C.ar    1  UNL1        0.1401
     36 F         137.5200  138.6547  167.3886 F       1  UNL1       -0.2042
     37 C         138.8655  137.5658  165.4511 C.ar    1  UNL1        0.0293
     38 C         139.5349  137.6743  164.1132 C.ar    1  UNL1       -0.0017
     39 C         141.5093  139.8050  161.9103 C.ar    1  UNL1       -0.0183
     40 C         142.7937  139.0315  161.9529 C.ar    1  UNL1       -0.0017
     41 C         144.1054  139.7481  161.8264 C.ar    1  UNL1        0.0293
     42 C         144.1326  141.2383  161.6573 C.ar    1  UNL1        0.1401
     43 F         145.4442  141.9549  161.5308 F       1  UNL1       -0.2042
     44 C         142.8481  142.0119  161.6147 C.ar    1  UNL1        0.0293
     45 C         141.5364  141.2952  161.7412 C.ar    1  UNL1       -0.0017
@<TRIPOS>BOND
     1     9    10    2
     2    10    11   am
     3    11     8    1
     4     1     8    1
     5     1     2    1
     6     2     3    1
     7     3     4    1
     8     4     5   am
     9     5     6    2
    10     5    27    1
    11    27    28    1
    12    28    29    1
    13    29    30    1
    14    30    31    1
    15    31    32    1
    16    32    33   ar
    17    33    34   ar
    18    34    35   ar
    19    35    36    1
    20    35    37   ar
    21    37    38   ar
    22    31    39    1
    23    39    40   ar
    24    40    41   ar
    25    41    42   ar
    26    42    43    1
    27    42    44   ar
    28    44    45   ar
    29     4     7    1
    30    10    13    1
    31    13    14   ar
    32    14    15   ar
    33    15    19    1
    34    19    20    1
    35    19    21    1
    36    19    22    1
    37    15    16   ar
    38    16    17   ar
    39    17    23    1
    40    23    24    1
    41    23    25    1
    42    23    26    1
    43    17    18   ar
    44     7     1    1
    45    18    13   ar
    46    38    32   ar
    47    45    39   ar
    48    11    12    1
@<TRIPOS>MOLECULE
*****
 45 48 0 0 0
SMALL
GASTEIGER

@<TRIPOS>ATOM
      1 C         139.9109  144.4572  161.6910 C.3     1  UNL1        0.0412
      2 C         140.6943  145.1606  160.6226 C.3     1  UNL1        0.0249
      3 C         140.4408  144.4567  159.3225 C.3     1  UNL1        0.0935
      4 N         139.5007  143.3183  159.5873 N.am    1  UNL1       -0.2795
      5 C         138.9796  142.3497  158.5674 C.2     1  UNL1        0.2256
      6 O         139.3975  142.4746  157.1323 O.2     1  UNL1       -0.2749
      7 C         139.1732  143.3186  161.0512 C.3     1  UNL1        0.0951
      8 C         139.8720  144.8273  163.1441 C.3     1  UNL1        0.0914
      9 O         142.4745  143.9794  164.3721 O.2     1  UNL1       -0.2701
     10 C         141.1937  143.3305  164.8062 C.2     1  UNL1        0.2458
     11 N         139.8925  143.7544  164.1922 N.am    1  UNL1       -0.3008
     12 H         139.0519  143.3285  164.4771 H       1  UNL1        0.1497
     13 C         141.2142  142.2576  165.8543 C.ar    1  UNL1        0.0533
     14 C         142.0839  141.0488  165.6733 C.ar    1  UNL1        0.0083
     15 C         142.1044  139.9759  166.7214 C.ar    1  UNL1        0.0715
     16 C         141.2552  140.1118  167.9505 C.ar    1  UNL1        0.0077
     17 C         140.3856  141.3205  168.1314 C.ar    1  UNL1        0.0715
     18 C         140.3651  142.3934  167.0833 C.ar    1  UNL1        0.0083
     19 C         142.9740  138.7672  166.5404 C.3     1  UNL1        0.4186
     20 F         143.8436  137.5585  166.3595 F       1  UNL1       -0.1659
     21 F         142.8535  138.9034  165.0515 F       1  UNL1       -0.1659
     22 F         143.0944  138.6310  168.0294 F       1  UNL1       -0.1659
     23 C         139.5365  141.4563  169.3604 C.3     1  UNL1        0.4186
     24 F         138.6874  141.5922  170.5894 F       1  UNL1       -0.1659
     25 F         139.1411  140.0139  169.2467 F       1  UNL1       -0.1659
     26 F         139.9318  142.8988  169.4741 F       1  UNL1       -0.1659
     27 C         138.0405  141.2562  158.9827 C.3     1  UNL1        0.0853
     28 C         138.4473  140.2830  160.0492 C.3     1  UNL1        0.0096
     29 C         139.3664  139.1456  159.7154 C.3     1  UNL1        0.0012
     30 C         140.0335  138.3730  160.8146 C.3     1  UNL1        0.0087
     31 C         140.5531  139.0889  162.0260 C.3     1  UNL1        0.0446
     32 C         141.8334  139.8665  161.9461 C.ar    1  UNL1       -0.0183
     33 C         143.1474  139.1696  162.1402 C.ar    1  UNL1       -0.0017
     34 C         144.4276  139.9471  162.0602 C.ar    1  UNL1        0.0293
     35 C         144.3939  141.4215  161.7862 C.ar    1  UNL1        0.1401
     36 F         145.6742  142.1990  161.7063 F       1  UNL1       -0.2042
     37 C         143.0798  142.1184  161.5921 C.ar    1  UNL1        0.0293
     38 C         141.7996  141.3408  161.6720 C.ar    1  UNL1       -0.0017
     39 C         139.7924  139.0274  163.3173 C.ar    1  UNL1       -0.0183
     40 C         138.9738  140.2029  163.7623 C.ar    1  UNL1       -0.0017
     41 C         138.2131  140.1414  165.0537 C.ar    1  UNL1        0.0293
     42 C         138.2710  138.9043  165.9000 C.ar    1  UNL1        0.1401
     43 F         137.5103  138.8428  167.1913 F       1  UNL1       -0.2042
     44 C         139.0896  137.7287  165.4550 C.ar    1  UNL1        0.0293
     45 C         139.8503  137.7903  164.1637 C.ar    1  UNL1       -0.0017
@<TRIPOS>BOND
     1     9    10    2
     2    10    11   am
     3    11     8    1
     4     1     8    1
     5     1     2    1
     6     2     3    1
     7     3     4    1
     8     4     5   am
     9     5     6    2
    10     5    27    1
    11    27    28    1
    12    28    29    1
    13    29    30    1
    14    30    31    1
    15    31    32    1
    16    32    33   ar
    17    33    34   ar
    18    34    35   ar
    19    35    36    1
    20    35    37   ar
    21    37    38   ar
    22    31    39    1
    23    39    40   ar
    24    40    41   ar
    25    41    42   ar
    26    42    43    1
    27    42    44   ar
    28    44    45   ar
    29     4     7    1
    30    10    13    1
    31    13    14   ar
    32    14    15   ar
    33    15    19    1
    34    19    20    1
    35    19    21    1
    36    19    22    1
    37    15    16   ar
    38    16    17   ar
    39    17    23    1
    40    23    24    1
    41    23    25    1
    42    23    26    1
    43    17    18   ar
    44     7     1    1
    45    18    13   ar
    46    38    32   ar
    47    45    39   ar
    48    11    12    1
@<TRIPOS>MOLECULE
*****
 45 48 0 0 0
SMALL
GASTEIGER

@<TRIPOS>ATOM
      1 C         140.1839  143.0439  159.9822 C.3     1  UNL1        0.0412
      2 C         139.7229  143.4779  158.6224 C.3     1  UNL1        0.0249
      3 C         140.6269  142.8492  157.6039 C.3     1  UNL1        0.0935
      4 N         141.6466  142.0266  158.3342 N.am    1  UNL1       -0.2795
      5 C         142.7470  141.2244  157.7051 C.2     1  UNL1        0.2256
      6 O         142.8979  141.1992  156.2129 O.2     1  UNL1       -0.2749
      7 C         141.3729  142.1469  159.8041 C.3     1  UNL1        0.0951
      8 C         139.5647  143.4377  161.2905 C.3     1  UNL1        0.0914
      9 O         139.5398  144.6631  164.0286 O.2     1  UNL1       -0.2701
     10 C         139.7428  143.1854  163.8701 C.2     1  UNL1        0.2458
     11 N         139.7553  142.5727  162.5010 N.am    1  UNL1       -0.3008
     12 H         139.8885  141.6028  162.3969 H       1  UNL1        0.1497
     13 C         139.9334  142.3203  165.0807 C.ar    1  UNL1        0.0533
     14 C         138.9361  141.2460  165.3993 C.ar    1  UNL1        0.0083
     15 C         139.1266  140.3810  166.6099 C.ar    1  UNL1        0.0715
     16 C         140.3145  140.5903  167.5018 C.ar    1  UNL1        0.0077
     17 C         141.3117  141.6645  167.1831 C.ar    1  UNL1        0.0715
     18 C         141.1211  142.5296  165.9725 C.ar    1  UNL1        0.0083
     19 C         138.1295  139.3068  166.9285 C.3     1  UNL1        0.4186
     20 F         137.1322  138.2326  167.2472 F       1  UNL1       -0.1659
     21 F         137.7418  139.2372  165.4812 F       1  UNL1       -0.1659
     22 F         138.5171  139.3763  168.3760 F       1  UNL1       -0.1659
     23 C         142.4994  141.8737  168.0750 C.3     1  UNL1        0.4186
     24 F         143.6872  142.0830  168.9668 F       1  UNL1       -0.1659
     25 F         141.8092  143.0384  168.7209 F       1  UNL1       -0.1659
     26 F         143.1896  140.7091  167.4290 F       1  UNL1       -0.1659
     27 C         143.6965  140.4475  158.5681 C.3     1  UNL1        0.0853
     28 C         143.1753  139.3801  159.4841 C.3     1  UNL1        0.0096
     29 C         143.9338  139.0233  160.7280 C.3     1  UNL1        0.0012
     30 C         144.4175  140.1050  161.6478 C.3     1  UNL1        0.0087
     31 C         143.5613  140.5519  162.7955 C.3     1  UNL1        0.0446
     32 C         143.7305  141.9290  163.3656 C.ar    1  UNL1       -0.0183
     33 C         144.4020  142.1135  164.6941 C.ar    1  UNL1       -0.0017
     34 C         144.5711  143.4905  165.2642 C.ar    1  UNL1        0.0293
     35 C         144.0687  144.6832  164.5058 C.ar    1  UNL1        0.1401
     36 F         144.2378  146.0603  165.0760 F       1  UNL1       -0.2042
     37 C         143.3972  144.4987  163.1773 C.ar    1  UNL1        0.0293
     38 C         143.2281  143.1217  162.6072 C.ar    1  UNL1       -0.0017
     39 C         142.5360  139.6218  163.3730 C.ar    1  UNL1       -0.0183
     40 C         142.8545  138.8253  164.6035 C.ar    1  UNL1       -0.0017
     41 C         141.8292  137.8951  165.1810 C.ar    1  UNL1        0.0293
     42 C         140.4853  137.7616  164.5282 C.ar    1  UNL1        0.1401
     43 F         139.4600  136.8315  165.1057 F       1  UNL1       -0.2042
     44 C         140.1668  138.5582  163.2977 C.ar    1  UNL1        0.0293
     45 C         141.1921  139.4883  162.7201 C.ar    1  UNL1       -0.0017
@<TRIPOS>BOND
     1     9    10    2
     2    10    11   am
     3    11     8    1
     4     1     8    1
     5     1     2    1
     6     2     3    1
     7     3     4    1
     8     4     5   am
     9     5     6    2
    10     5    27    1
    11    27    28    1
    12    28    29    1
    13    29    30    1
    14    30    31    1
    15    31    32    1
    16    32    33   ar
    17    33    34   ar
    18    34    35   ar
    19    35    36    1
    20    35    37   ar
    21    37    38   ar
    22    31    39    1
    23    39    40   ar
    24    40    41   ar
    25    41    42   ar
    26    42    43    1
    27    42    44   ar
    28    44    45   ar
    29     4     7    1
    30    10    13    1
    31    13    14   ar
    32    14    15   ar
    33    15    19    1
    34    19    20    1
    35    19    21    1
    36    19    22    1
    37    15    16   ar
    38    16    17   ar
    39    17    23    1
    40    23    24    1
    41    23    25    1
    42    23    26    1
    43    17    18   ar
    44     7     1    1
    45    18    13   ar
    46    38    32   ar
    47    45    39   ar
    48    11    12    1
