@<TRIPOS>MOLECULE
*****
 45 48 0 0 0
SMALL
GASTEIGER

@<TRIPOS>ATOM
      1 C         141.4131  144.6222  162.1013 C.3     1  UNL1        0.0412
      2 C         140.7336  145.1462  160.8709 C.3     1  UNL1        0.0249
      3 C         141.2787  144.4024  159.6879 C.3     1  UNL1        0.0935
      4 N         142.2951  143.4186  160.1870 N.am    1  UNL1       -0.2795
      5 C         143.0890  142.4663  159.3429 C.2     1  UNL1        0.2256
      6 O         142.8975  142.4439  157.8553 O.2     1  UNL1       -0.2749
      7 C         142.3782  143.5545  161.6786 C.3     1  UNL1        0.0951
      8 C         141.1702  145.0847  163.5073 C.3     1  UNL1        0.0914
      9 O         138.6848  143.4215  163.7438 O.2     1  UNL1       -0.2701
     10 C         139.7989  143.2500  164.7334 C.2     1  UNL1        0.2458
     11 N         141.0416  144.0816  164.6152 N.am    1  UNL1       -0.3008
     12 H         141.7729  143.9691  165.2647 H       1  UNL1        0.1497
     13 C         139.6703  142.2469  165.8412 C.ar    1  UNL1        0.0533
     14 C         139.1073  140.8855  165.5587 C.ar    1  UNL1        0.0083
     15 C         138.9787  139.8824  166.6666 C.ar    1  UNL1        0.0715
     16 C         139.4131  140.2407  168.0569 C.ar    1  UNL1        0.0077
     17 C         139.9761  141.6020  168.3394 C.ar    1  UNL1        0.0715
     18 C         140.1047  142.6051  167.2315 C.ar    1  UNL1        0.0083
     19 C         138.4157  138.5211  166.3840 C.3     1  UNL1        0.4186
     20 F         137.8527  137.1598  166.1016 F       1  UNL1       -0.1659
     21 F         139.2451  138.4368  165.1370 F       1  UNL1       -0.1659
     22 F         137.5863  138.6053  167.6311 F       1  UNL1       -0.1659
     23 C         140.4104  141.9603  169.7297 C.3     1  UNL1        0.4186
     24 F         140.8448  142.3185  171.1200 F       1  UNL1       -0.1659
     25 F         140.7421  140.5220  169.9967 F       1  UNL1       -0.1659
     26 F         140.0788  143.3985  169.4627 F       1  UNL1       -0.1659
     27 C         144.0745  141.5362  159.9863 C.3     1  UNL1        0.0853
     28 C         143.7270  140.0894  160.1757 C.3     1  UNL1        0.0096
     29 C         144.2746  139.3341  161.3503 C.3     1  UNL1        0.0012
     30 C         143.3714  138.4556  162.1642 C.3     1  UNL1        0.0087
     31 C         142.2638  139.0630  162.9729 C.3     1  UNL1        0.0446
     32 C         140.8853  139.1747  162.3921 C.ar    1  UNL1       -0.0183
     33 C         140.3109  140.5243  162.0781 C.ar    1  UNL1       -0.0017
     34 C         138.9324  140.6360  161.4972 C.ar    1  UNL1        0.0293
     35 C         138.1284  139.3981  161.2304 C.ar    1  UNL1        0.1401
     36 F         136.7499  139.5099  160.6496 F       1  UNL1       -0.2042
     37 C         138.7028  138.0485  161.5445 C.ar    1  UNL1        0.0293
     38 C         140.0812  137.9368  162.1253 C.ar    1  UNL1       -0.0017
     39 C         142.5345  139.5587  164.3625 C.ar    1  UNL1       -0.0183
     40 C         142.3678  138.6363  165.5336 C.ar    1  UNL1       -0.0017
     41 C         142.6386  139.1320  166.9232 C.ar    1  UNL1        0.0293
     42 C         143.0760  140.5501  167.1417 C.ar    1  UNL1        0.1401
     43 F         143.3468  141.0458  168.5313 F       1  UNL1       -0.2042
     44 C         143.2428  141.4725  165.9706 C.ar    1  UNL1        0.0293
     45 C         142.9720  140.9768  164.5810 C.ar    1  UNL1       -0.0017
@<TRIPOS>BOND
     1     9    10    2
     2    10    11   am
     3    11     8    1
     4     1     8    1
     5     1     2    1
     6     2     3    1
     7     3     4    1
     8     4     5   am
     9     5     6    2
    10     5    27    1
    11    27    28    1
    12    28    29    1
    13    29    30    1
    14    30    31    1
    15    31    32    1
    16    32    33   ar
    17    33    34   ar
    18    34    35   ar
    19    35    36    1
    20    35    37   ar
    21    37    38   ar
    22    31    39    1
    23    39    40   ar
    24    40    41   ar
    25    41    42   ar
    26    42    43    1
    27    42    44   ar
    28    44    45   ar
    29     4     7    1
    30    10    13    1
    31    13    14   ar
    32    14    15   ar
    33    15    19    1
    34    19    20    1
    35    19    21    1
    36    19    22    1
    37    15    16   ar
    38    16    17   ar
    39    17    23    1
    40    23    24    1
    41    23    25    1
    42    23    26    1
    43    17    18   ar
    44     7     1    1
    45    18    13   ar
    46    38    32   ar
    47    45    39   ar
    48    11    12    1
@<TRIPOS>MOLECULE
*****
 45 48 0 0 0
SMALL
GASTEIGER

@<TRIPOS>ATOM
      1 C         140.6428  145.1504  161.2841 C.3     1  UNL1        0.0412
      2 C         140.3393  145.8075  159.9703 C.3     1  UNL1        0.0249
      3 C         141.1880  145.1559  158.9191 C.3     1  UNL1        0.0935
      4 N         142.0160  144.0960  159.5832 N.am    1  UNL1       -0.2795
      5 C         143.0069  143.1973  158.9047 C.2     1  UNL1        0.2256
      6 O         143.2396  143.3171  157.4277 O.2     1  UNL1       -0.2749
      7 C         141.6790  144.0926  161.0449 C.3     1  UNL1        0.0951
      8 C         140.0194  145.4912  162.6052 C.3     1  UNL1        0.0914
      9 O         138.2367  143.0944  162.8830 O.2     1  UNL1       -0.2701
     10 C         139.2931  143.3667  163.9125 C.2     1  UNL1        0.2458
     11 N         140.1845  144.5650  163.7736 N.am    1  UNL1       -0.3008
     12 H         140.8779  144.7437  164.4493 H       1  UNL1        0.1497
     13 C         139.4582  142.4405  165.0809 C.ar    1  UNL1        0.0533
     14 C         140.0386  142.9510  166.3664 C.ar    1  UNL1        0.0083
     15 C         140.2037  142.0249  167.5348 C.ar    1  UNL1        0.0715
     16 C         139.7882  140.5883  167.4176 C.ar    1  UNL1        0.0077
     17 C         139.2078  140.0778  166.1321 C.ar    1  UNL1        0.0715
     18 C         139.0428  141.0040  164.9637 C.ar    1  UNL1        0.0083
     19 C         140.7841  142.5354  168.8202 C.3     1  UNL1        0.4186
     20 F         141.3645  143.0458  170.1057 F       1  UNL1       -0.1659
     21 F         140.0834  143.8459  168.6162 F       1  UNL1       -0.1659
     22 F         141.4848  141.2248  169.0243 F       1  UNL1       -0.1659
     23 C         138.7925  138.6413  166.0149 C.3     1  UNL1        0.4186
     24 F         138.3771  137.2047  165.8978 F       1  UNL1       -0.1659
     25 F         140.1593  138.2873  165.5087 F       1  UNL1       -0.1659
     26 F         137.4256  138.9952  166.5212 F       1  UNL1       -0.1659
     27 C         143.7653  142.1788  159.7033 C.3     1  UNL1        0.0853
     28 C         143.9362  140.7860  159.1734 C.3     1  UNL1        0.0096
     29 C         143.3704  139.6210  159.9302 C.3     1  UNL1        0.0012
     30 C         143.5766  139.5180  161.4124 C.3     1  UNL1        0.0087
     31 C         142.4822  139.9288  162.3523 C.3     1  UNL1        0.0446
     32 C         141.0528  139.6171  162.0211 C.ar    1  UNL1       -0.0183
     33 C         140.4724  138.2827  162.3850 C.ar    1  UNL1       -0.0017
     34 C         139.0431  137.9710  162.0538 C.ar    1  UNL1        0.0293
     35 C         138.1941  138.9937  161.3587 C.ar    1  UNL1        0.1401
     36 F         136.7646  138.6820  161.0274 F       1  UNL1       -0.2042
     37 C         138.7744  140.3281  160.9947 C.ar    1  UNL1        0.0293
     38 C         140.2038  140.6398  161.3259 C.ar    1  UNL1       -0.0017
     39 C         142.8171  140.6514  163.6234 C.ar    1  UNL1       -0.0183
     40 C         142.9208  139.8921  164.9128 C.ar    1  UNL1       -0.0017
     41 C         143.2557  140.6147  166.1839 C.ar    1  UNL1        0.0293
     42 C         143.4870  142.0966  166.1656 C.ar    1  UNL1        0.1401
     43 F         143.8219  142.8192  167.4367 F       1  UNL1       -0.2042
     44 C         143.3833  142.8560  164.8761 C.ar    1  UNL1        0.0293
     45 C         143.0484  142.1334  163.6050 C.ar    1  UNL1       -0.0017
@<TRIPOS>BOND
     1     9    10    2
     2    10    11   am
     3    11     8    1
     4     1     8    1
     5     1     2    1
     6     2     3    1
     7     3     4    1
     8     4     5   am
     9     5     6    2
    10     5    27    1
    11    27    28    1
    12    28    29    1
    13    29    30    1
    14    30    31    1
    15    31    32    1
    16    32    33   ar
    17    33    34   ar
    18    34    35   ar
    19    35    36    1
    20    35    37   ar
    21    37    38   ar
    22    31    39    1
    23    39    40   ar
    24    40    41   ar
    25    41    42   ar
    26    42    43    1
    27    42    44   ar
    28    44    45   ar
    29     4     7    1
    30    10    13    1
    31    13    14   ar
    32    14    15   ar
    33    15    19    1
    34    19    20    1
    35    19    21    1
    36    19    22    1
    37    15    16   ar
    38    16    17   ar
    39    17    23    1
    40    23    24    1
    41    23    25    1
    42    23    26    1
    43    17    18   ar
    44     7     1    1
    45    18    13   ar
    46    38    32   ar
    47    45    39   ar
    48    11    12    1
@<TRIPOS>MOLECULE
*****
 45 48 0 0 0
SMALL
GASTEIGER

@<TRIPOS>ATOM
      1 C         139.8265  143.6654  160.7442 C.3     1  UNL1        0.0412
      2 C         140.3148  144.9914  160.2408 C.3     1  UNL1        0.0249
      3 C         141.4311  144.7368  159.2718 C.3     1  UNL1        0.0935
      4 N         141.6328  143.2536  159.1763 N.am    1  UNL1       -0.2795
      5 C         142.6478  142.5551  158.3209 C.2     1  UNL1        0.2256
      6 O         143.5782  143.3541  157.4573 O.2     1  UNL1       -0.2749
      7 C         140.6411  142.5914  160.0863 C.3     1  UNL1        0.0951
      8 C         138.7183  143.4512  161.7321 C.3     1  UNL1        0.0914
      9 O         140.1854  144.4759  164.1399 O.2     1  UNL1       -0.2701
     10 C         139.6658  143.0689  164.1208 C.2     1  UNL1        0.2458
     11 N         138.9323  142.5565  162.9170 N.am    1  UNL1       -0.3008
     12 H         138.5913  141.6330  162.9044 H       1  UNL1        0.1497
     13 C         139.8798  142.1742  165.3057 C.ar    1  UNL1        0.0533
     14 C         141.1029  142.3387  166.1585 C.ar    1  UNL1        0.0083
     15 C         141.3169  141.4440  167.3433 C.ar    1  UNL1        0.0715
     16 C         140.3078  140.3849  167.6754 C.ar    1  UNL1        0.0077
     17 C         139.0848  140.2205  166.8226 C.ar    1  UNL1        0.0715
     18 C         138.8708  141.1152  165.6378 C.ar    1  UNL1        0.0083
     19 C         142.5399  141.6085  168.1960 C.3     1  UNL1        0.4186
     20 F         143.7629  141.7730  169.0487 F       1  UNL1       -0.1659
     21 F         143.1119  140.3476  167.6189 F       1  UNL1       -0.1659
     22 F         141.9680  142.8694  168.7731 F       1  UNL1       -0.1659
     23 C         138.0758  139.1615  167.1547 C.3     1  UNL1        0.4186
     24 F         137.0668  138.1025  167.4868 F       1  UNL1       -0.1659
     25 F         137.6942  139.0711  165.7069 F       1  UNL1       -0.1659
     26 F         138.4574  139.2520  168.6025 F       1  UNL1       -0.1659
     27 C         142.7325  141.0574  158.3291 C.3     1  UNL1        0.0853
     28 C         143.8564  140.3737  159.0499 C.3     1  UNL1        0.0096
     29 C         143.5910  139.6469  160.3348 C.3     1  UNL1        0.0012
     30 C         144.2765  140.0799  161.5969 C.3     1  UNL1        0.0087
     31 C         143.4644  140.5271  162.7760 C.3     1  UNL1        0.0446
     32 C         143.6640  141.8998  163.3471 C.ar    1  UNL1       -0.0183
     33 C         144.2923  142.0656  164.6990 C.ar    1  UNL1       -0.0017
     34 C         144.4919  143.4382  165.2699 C.ar    1  UNL1        0.0293
     35 C         144.0632  144.6450  164.4890 C.ar    1  UNL1        0.1401
     36 F         144.2628  146.0176  165.0601 F       1  UNL1       -0.2042
     37 C         143.4349  144.4792  163.1371 C.ar    1  UNL1        0.0293
     38 C         143.2353  143.1066  162.5661 C.ar    1  UNL1       -0.0017
     39 C         142.4526  139.6017  163.3842 C.ar    1  UNL1       -0.0183
     40 C         141.0598  139.5447  162.8302 C.ar    1  UNL1       -0.0017
     41 C         140.0480  138.6193  163.4383 C.ar    1  UNL1        0.0293
     42 C         140.4289  137.7508  164.6005 C.ar    1  UNL1        0.1401
     43 F         139.4171  136.8254  165.2086 F       1  UNL1       -0.2042
     44 C         141.8218  137.8078  165.1545 C.ar    1  UNL1        0.0293
     45 C         142.8336  138.7332  164.5464 C.ar    1  UNL1       -0.0017
@<TRIPOS>BOND
     1     9    10    2
     2    10    11   am
     3    11     8    1
     4     1     8    1
     5     1     2    1
     6     2     3    1
     7     3     4    1
     8     4     5   am
     9     5     6    2
    10     5    27    1
    11    27    28    1
    12    28    29    1
    13    29    30    1
    14    30    31    1
    15    31    32    1
    16    32    33   ar
    17    33    34   ar
    18    34    35   ar
    19    35    36    1
    20    35    37   ar
    21    37    38   ar
    22    31    39    1
    23    39    40   ar
    24    40    41   ar
    25    41    42   ar
    26    42    43    1
    27    42    44   ar
    28    44    45   ar
    29     4     7    1
    30    10    13    1
    31    13    14   ar
    32    14    15   ar
    33    15    19    1
    34    19    20    1
    35    19    21    1
    36    19    22    1
    37    15    16   ar
    38    16    17   ar
    39    17    23    1
    40    23    24    1
    41    23    25    1
    42    23    26    1
    43    17    18   ar
    44     7     1    1
    45    18    13   ar
    46    38    32   ar
    47    45    39   ar
    48    11    12    1
@<TRIPOS>MOLECULE
*****
 45 48 0 0 0
SMALL
GASTEIGER

@<TRIPOS>ATOM
      1 C         141.2388  138.9508  158.8352 C.3     1  UNL1        0.0412
      2 C         141.9730  138.3614  157.6674 C.3     1  UNL1        0.0249
      3 C         143.1563  139.2356  157.3748 C.3     1  UNL1        0.0935
      4 N         143.1534  140.3652  158.3617 N.am    1  UNL1       -0.2795
      5 C         144.1591  141.4758  158.4334 C.2     1  UNL1        0.2256
      6 O         145.2977  141.5207  157.4580 O.2     1  UNL1       -0.2749
      7 C         141.9683  140.1892  159.2642 C.3     1  UNL1        0.0951
      8 C         139.9936  138.3987  159.4635 C.3     1  UNL1        0.0914
      9 O         140.9856  137.3088  162.0765 O.2     1  UNL1       -0.2701
     10 C         139.9843  138.4255  162.0615 C.2     1  UNL1        0.2458
     11 N         139.4883  138.9705  160.7550 N.am    1  UNL1       -0.3008
     12 H         138.8311  139.7034  160.7450 H       1  UNL1        0.1497
     13 C         139.4789  138.9973  163.3529 C.ar    1  UNL1        0.0533
     14 C         139.5883  140.4703  163.6147 C.ar    1  UNL1        0.0083
     15 C         139.0830  141.0420  164.9061 C.ar    1  UNL1        0.0715
     16 C         138.4682  140.1408  165.9357 C.ar    1  UNL1        0.0077
     17 C         138.3589  138.6679  165.6739 C.ar    1  UNL1        0.0715
     18 C         138.8642  138.0961  164.3824 C.ar    1  UNL1        0.0083
     19 C         139.1923  142.5149  165.1679 C.3     1  UNL1        0.4186
     20 F         139.3018  143.9878  165.4298 F       1  UNL1       -0.1659
     21 F         138.4280  142.7956  163.9082 F       1  UNL1       -0.1659
     22 F         139.9567  142.2342  166.4277 F       1  UNL1       -0.1659
     23 C         137.7442  137.7667  166.7034 C.3     1  UNL1        0.4186
     24 F         137.1295  136.8655  167.7330 F       1  UNL1       -0.1659
     25 F         137.3689  138.9632  167.5266 F       1  UNL1       -0.1659
     26 F         138.1194  136.5703  165.8802 F       1  UNL1       -0.1659
     27 C         144.0261  142.5416  159.4806 C.3     1  UNL1        0.0853
     28 C         144.8648  142.4814  160.7227 C.3     1  UNL1        0.0096
     29 C         144.6060  141.4212  161.7517 C.3     1  UNL1        0.0012
     30 C         144.6701  141.7611  163.2113 C.3     1  UNL1        0.0087
     31 C         143.4131  142.0906  163.9605 C.3     1  UNL1        0.0446
     32 C         142.4944  143.1608  163.4500 C.ar    1  UNL1       -0.0183
     33 C         141.5659  142.8704  162.3083 C.ar    1  UNL1       -0.0017
     34 C         140.6472  143.9406  161.7979 C.ar    1  UNL1        0.0293
     35 C         140.6570  145.3012  162.4292 C.ar    1  UNL1        0.1401
     36 F         139.7382  146.3715  161.9187 F       1  UNL1       -0.2042
     37 C         141.5854  145.5917  163.5709 C.ar    1  UNL1        0.0293
     38 C         142.5041  144.5215  164.0814 C.ar    1  UNL1       -0.0017
     39 C         143.0748  141.3499  165.2203 C.ar    1  UNL1       -0.0183
     40 C         142.6668  139.9079  165.1559 C.ar    1  UNL1       -0.0017
     41 C         142.3285  139.1672  166.4156 C.ar    1  UNL1        0.0293
     42 C         142.3982  139.8684  167.7397 C.ar    1  UNL1        0.1401
     43 F         142.0599  139.1277  168.9994 F       1  UNL1       -0.2042
     44 C         142.8062  141.3105  167.8041 C.ar    1  UNL1        0.0293
     45 C         143.1445  142.0512  166.5444 C.ar    1  UNL1       -0.0017
@<TRIPOS>BOND
     1     9    10    2
     2    10    11   am
     3    11     8    1
     4     1     8    1
     5     1     2    1
     6     2     3    1
     7     3     4    1
     8     4     5   am
     9     5     6    2
    10     5    27    1
    11    27    28    1
    12    28    29    1
    13    29    30    1
    14    30    31    1
    15    31    32    1
    16    32    33   ar
    17    33    34   ar
    18    34    35   ar
    19    35    36    1
    20    35    37   ar
    21    37    38   ar
    22    31    39    1
    23    39    40   ar
    24    40    41   ar
    25    41    42   ar
    26    42    43    1
    27    42    44   ar
    28    44    45   ar
    29     4     7    1
    30    10    13    1
    31    13    14   ar
    32    14    15   ar
    33    15    19    1
    34    19    20    1
    35    19    21    1
    36    19    22    1
    37    15    16   ar
    38    16    17   ar
    39    17    23    1
    40    23    24    1
    41    23    25    1
    42    23    26    1
    43    17    18   ar
    44     7     1    1
    45    18    13   ar
    46    38    32   ar
    47    45    39   ar
    48    11    12    1
@<TRIPOS>MOLECULE
*****
 45 48 0 0 0
SMALL
GASTEIGER

@<TRIPOS>ATOM
      1 C         141.3393  144.7405  162.1552 C.3     1  UNL1        0.0412
      2 C         140.7920  145.3837  160.9154 C.3     1  UNL1        0.0249
      3 C         141.3491  144.6532  159.7297 C.3     1  UNL1        0.0935
      4 N         142.2407  143.5587  160.2365 N.am    1  UNL1       -0.2795
      5 C         143.0043  142.5817  159.3925 C.2     1  UNL1        0.2256
      6 O         142.9121  142.6502  157.8969 O.2     1  UNL1       -0.2749
      7 C         142.2347  143.6126  161.7355 C.3     1  UNL1        0.0951
      8 C         141.0433  145.1529  163.5666 C.3     1  UNL1        0.0914
      9 O         138.6085  143.4129  163.7772 O.2     1  UNL1       -0.2701
     10 C         139.7357  143.2467  164.7528 C.2     1  UNL1        0.2458
     11 N         140.9531  144.1167  164.6475 N.am    1  UNL1       -0.3008
     12 H         141.6929  144.0076  165.2878 H       1  UNL1        0.1497
     13 C         139.6455  142.2105  165.8336 C.ar    1  UNL1        0.0533
     14 C         139.1618  140.8282  165.5089 C.ar    1  UNL1        0.0083
     15 C         139.0716  139.7920  166.5898 C.ar    1  UNL1        0.0715
     16 C         139.4652  140.1382  167.9953 C.ar    1  UNL1        0.0077
     17 C         139.9489  141.5204  168.3199 C.ar    1  UNL1        0.0715
     18 C         140.0391  142.5566  167.2391 C.ar    1  UNL1        0.0083
     19 C         138.5878  138.4099  166.2651 C.3     1  UNL1        0.4186
     20 F         138.1041  137.0276  165.9405 F       1  UNL1       -0.1659
     21 F         139.5631  138.3356  165.1279 F       1  UNL1       -0.1659
     22 F         137.6125  138.4841  167.4024 F       1  UNL1       -0.1659
     23 C         140.3424  141.8665  169.7254 C.3     1  UNL1        0.4186
     24 F         140.7360  142.2126  171.1308 F       1  UNL1       -0.1659
     25 F         139.2258  141.0123  170.2484 F       1  UNL1       -0.1659
     26 F         141.4591  142.7207  169.2024 F       1  UNL1       -0.1659
     27 C         143.8602  141.5362  160.0440 C.3     1  UNL1        0.0853
     28 C         143.7420  140.1013  159.6234 C.3     1  UNL1        0.0096
     29 C         143.6344  139.0224  160.6599 C.3     1  UNL1        0.0012
     30 C         143.8031  139.3580  162.1122 C.3     1  UNL1        0.0087
     31 C         142.5969  139.5384  162.9854 C.3     1  UNL1        0.0446
     32 C         142.7654  139.7914  164.4543 C.ar    1  UNL1       -0.0183
     33 C         143.0259  141.1827  164.9507 C.ar    1  UNL1       -0.0017
     34 C         143.1944  141.4356  166.4195 C.ar    1  UNL1        0.0293
     35 C         143.1024  140.2972  167.3920 C.ar    1  UNL1        0.1401
     36 F         143.2709  140.5502  168.8609 F       1  UNL1       -0.2042
     37 C         142.8419  138.9060  166.8956 C.ar    1  UNL1        0.0293
     38 C         142.6734  138.6530  165.4268 C.ar    1  UNL1       -0.0017
     39 C         141.2222  139.4658  162.3897 C.ar    1  UNL1       -0.0183
     40 C         140.5718  138.1331  162.1646 C.ar    1  UNL1       -0.0017
     41 C         139.1970  138.0605  161.5689 C.ar    1  UNL1        0.0293
     42 C         138.4727  139.3206  161.1984 C.ar    1  UNL1        0.1401
     43 F         137.0980  139.2480  160.6027 F       1  UNL1       -0.2042
     44 C         139.1231  140.6534  161.4235 C.ar    1  UNL1        0.0293
     45 C         140.4979  140.7260  162.0192 C.ar    1  UNL1       -0.0017
@<TRIPOS>BOND
     1     9    10    2
     2    10    11   am
     3    11     8    1
     4     1     8    1
     5     1     2    1
     6     2     3    1
     7     3     4    1
     8     4     5   am
     9     5     6    2
    10     5    27    1
    11    27    28    1
    12    28    29    1
    13    29    30    1
    14    30    31    1
    15    31    32    1
    16    32    33   ar
    17    33    34   ar
    18    34    35   ar
    19    35    36    1
    20    35    37   ar
    21    37    38   ar
    22    31    39    1
    23    39    40   ar
    24    40    41   ar
    25    41    42   ar
    26    42    43    1
    27    42    44   ar
    28    44    45   ar
    29     4     7    1
    30    10    13    1
    31    13    14   ar
    32    14    15   ar
    33    15    19    1
    34    19    20    1
    35    19    21    1
    36    19    22    1
    37    15    16   ar
    38    16    17   ar
    39    17    23    1
    40    23    24    1
    41    23    25    1
    42    23    26    1
    43    17    18   ar
    44     7     1    1
    45    18    13   ar
    46    38    32   ar
    47    45    39   ar
    48    11    12    1
@<TRIPOS>MOLECULE
*****
 45 48 0 0 0
SMALL
GASTEIGER

@<TRIPOS>ATOM
      1 C         139.7040  145.1175  162.3208 C.3     1  UNL1        0.0412
      2 C         139.5557  146.4186  161.5891 C.3     1  UNL1        0.0249
      3 C         139.9871  146.2034  160.1687 C.3     1  UNL1        0.0935
      4 N         140.4021  144.7694  160.0224 N.am    1  UNL1       -0.2795
      5 C         140.9040  144.1204  158.7667 C.2     1  UNL1        0.2256
      6 O         141.0264  144.9227  157.5052 O.2     1  UNL1       -0.2749
      7 C         140.2272  144.0983  161.3525 C.3     1  UNL1        0.0951
      8 C         139.3852  144.8778  163.7667 C.3     1  UNL1        0.0914
      9 O         137.7616  142.3768  163.4371 O.2     1  UNL1       -0.2701
     10 C         139.0117  142.3556  164.2658 C.2     1  UNL1        0.2458
     11 N         139.8235  143.6061  164.4306 N.am    1  UNL1       -0.3008
     12 H         140.6440  143.5922  164.9745 H       1  UNL1        0.1497
     13 C         139.4500  141.0839  164.9296 C.ar    1  UNL1        0.0533
     14 C         138.4269  140.1218  165.4568 C.ar    1  UNL1        0.0083
     15 C         138.8652  138.8501  166.1206 C.ar    1  UNL1        0.0715
     16 C         140.3266  138.5405  166.2573 C.ar    1  UNL1        0.0077
     17 C         141.3496  139.5025  165.7302 C.ar    1  UNL1        0.0715
     18 C         140.9113  140.7743  165.0663 C.ar    1  UNL1        0.0083
     19 C         137.8422  137.8881  166.6477 C.3     1  UNL1        0.4186
     20 F         136.8191  136.9262  167.1749 F       1  UNL1       -0.1659
     21 F         138.3216  136.8477  165.6795 F       1  UNL1       -0.1659
     22 F         137.3627  138.9287  167.6161 F       1  UNL1       -0.1659
     23 C         142.8109  139.1929  165.8669 C.3     1  UNL1        0.4186
     24 F         144.2722  138.8832  166.0036 F       1  UNL1       -0.1659
     25 F         142.5402  137.7601  165.5149 F       1  UNL1       -0.1659
     26 F         143.0816  140.6257  166.2188 F       1  UNL1       -0.1659
     27 C         141.2834  142.6692  158.7724 C.3     1  UNL1        0.0853
     28 C         142.7252  142.2714  158.8859 C.3     1  UNL1        0.0096
     29 C         143.1006  140.8202  158.9416 C.3     1  UNL1        0.0012
     30 C         143.7464  140.2593  160.1739 C.3     1  UNL1        0.0087
     31 C         143.0619  140.3849  161.5027 C.3     1  UNL1        0.0446
     32 C         143.6268  141.2932  162.5545 C.ar    1  UNL1       -0.0183
     33 C         142.9251  142.5745  162.8945 C.ar    1  UNL1       -0.0017
     34 C         143.4899  143.4827  163.9462 C.ar    1  UNL1        0.0293
     35 C         144.7565  143.1095  164.6579 C.ar    1  UNL1        0.1401
     36 F         145.3214  144.0177  165.7096 F       1  UNL1       -0.2042
     37 C         145.4583  141.8281  164.3178 C.ar    1  UNL1        0.0293
     38 C         144.8934  140.9200  163.2661 C.ar    1  UNL1       -0.0017
     39 C         141.8126  139.6023  161.7798 C.ar    1  UNL1       -0.0183
     40 C         141.9046  138.2298  162.3779 C.ar    1  UNL1       -0.0017
     41 C         140.6553  137.4472  162.6550 C.ar    1  UNL1        0.0293
     42 C         139.3140  138.0371  162.3341 C.ar    1  UNL1        0.1401
     43 F         138.0647  137.2545  162.6112 F       1  UNL1       -0.2042
     44 C         139.2220  139.4097  161.7360 C.ar    1  UNL1        0.0293
     45 C         140.4713  140.1923  161.4589 C.ar    1  UNL1       -0.0017
@<TRIPOS>BOND
     1     9    10    2
     2    10    11   am
     3    11     8    1
     4     1     8    1
     5     1     2    1
     6     2     3    1
     7     3     4    1
     8     4     5   am
     9     5     6    2
    10     5    27    1
    11    27    28    1
    12    28    29    1
    13    29    30    1
    14    30    31    1
    15    31    32    1
    16    32    33   ar
    17    33    34   ar
    18    34    35   ar
    19    35    36    1
    20    35    37   ar
    21    37    38   ar
    22    31    39    1
    23    39    40   ar
    24    40    41   ar
    25    41    42   ar
    26    42    43    1
    27    42    44   ar
    28    44    45   ar
    29     4     7    1
    30    10    13    1
    31    13    14   ar
    32    14    15   ar
    33    15    19    1
    34    19    20    1
    35    19    21    1
    36    19    22    1
    37    15    16   ar
    38    16    17   ar
    39    17    23    1
    40    23    24    1
    41    23    25    1
    42    23    26    1
    43    17    18   ar
    44     7     1    1
    45    18    13   ar
    46    38    32   ar
    47    45    39   ar
    48    11    12    1
@<TRIPOS>MOLECULE
*****
 45 48 0 0 0
SMALL
GASTEIGER

@<TRIPOS>ATOM
      1 C         139.9834  143.3285  160.4389 C.3     1  UNL1        0.0412
      2 C         140.5375  144.6536  160.0060 C.3     1  UNL1        0.0249
      3 C         141.6608  144.3950  159.0462 C.3     1  UNL1        0.0935
      4 N         141.8010  142.9102  158.8858 N.am    1  UNL1       -0.2795
      5 C         142.8021  142.2079  158.0172 C.2     1  UNL1        0.2256
      6 O         143.7825  143.0043  157.2081 O.2     1  UNL1       -0.2749
      7 C         140.7643  142.2511  159.7466 C.3     1  UNL1        0.0951
      8 C         138.8478  143.1179  161.3960 C.3     1  UNL1        0.0914
      9 O         140.0294  144.3832  163.8460 O.2     1  UNL1       -0.2701
     10 C         139.6453  142.9333  163.8618 C.2     1  UNL1        0.2458
     11 N         139.0545  142.3007  162.6368 N.am    1  UNL1       -0.3008
     12 H         138.8023  141.3491  162.6471 H       1  UNL1        0.1497
     13 C         139.8519  142.1161  165.1026 C.ar    1  UNL1        0.0533
     14 C         138.8628  141.0507  165.4723 C.ar    1  UNL1        0.0083
     15 C         139.0695  140.2334  166.7130 C.ar    1  UNL1        0.0715
     16 C         140.2652  140.4817  167.5841 C.ar    1  UNL1        0.0077
     17 C         141.2543  141.5471  167.2144 C.ar    1  UNL1        0.0715
     18 C         141.0476  142.3643  165.9736 C.ar    1  UNL1        0.0083
     19 C         138.0805  139.1681  167.0827 C.3     1  UNL1        0.4186
     20 F         137.0915  138.1027  167.4524 F       1  UNL1       -0.1659
     21 F         137.7169  139.0037  165.6367 F       1  UNL1       -0.1659
     22 F         138.4440  139.3324  168.5287 F       1  UNL1       -0.1659
     23 C         142.4499  141.7954  168.0854 C.3     1  UNL1        0.4186
     24 F         143.6456  142.0436  168.9565 F       1  UNL1       -0.1659
     25 F         141.7343  142.9385  168.7420 F       1  UNL1       -0.1659
     26 F         143.1655  140.6522  167.4289 F       1  UNL1       -0.1659
     27 C         142.8228  140.7092  157.9577 C.3     1  UNL1        0.0853
     28 C         143.7648  139.9369  158.8330 C.3     1  UNL1        0.0096
     29 C         143.3782  139.6088  160.2447 C.3     1  UNL1        0.0012
     30 C         144.1168  140.2363  161.3897 C.3     1  UNL1        0.0087
     31 C         143.3772  140.6292  162.6341 C.3     1  UNL1        0.0446
     32 C         142.4149  139.6696  163.2692 C.ar    1  UNL1       -0.0183
     33 C         142.8005  138.9390  164.5211 C.ar    1  UNL1       -0.0017
     34 C         141.8383  137.9794  165.1561 C.ar    1  UNL1        0.0293
     35 C         140.4903  137.7505  164.5391 C.ar    1  UNL1        0.1401
     36 F         139.5280  136.7909  165.1742 F       1  UNL1       -0.2042
     37 C         140.1046  138.4811  163.2872 C.ar    1  UNL1        0.0293
     38 C         141.0669  139.4407  162.6522 C.ar    1  UNL1       -0.0017
     39 C         143.5998  141.9816  163.2435 C.ar    1  UNL1       -0.0183
     40 C         144.2970  142.1028  164.5660 C.ar    1  UNL1       -0.0017
     41 C         144.5196  143.4552  165.1754 C.ar    1  UNL1        0.0293
     42 C         144.0450  144.6865  164.4623 C.ar    1  UNL1        0.1401
     43 F         144.2676  146.0389  165.0717 F       1  UNL1       -0.2042
     44 C         143.3477  144.5654  163.1397 C.ar    1  UNL1        0.0293
     45 C         143.1251  143.2130  162.5303 C.ar    1  UNL1       -0.0017
@<TRIPOS>BOND
     1     9    10    2
     2    10    11   am
     3    11     8    1
     4     1     8    1
     5     1     2    1
     6     2     3    1
     7     3     4    1
     8     4     5   am
     9     5     6    2
    10     5    27    1
    11    27    28    1
    12    28    29    1
    13    29    30    1
    14    30    31    1
    15    31    32    1
    16    32    33   ar
    17    33    34   ar
    18    34    35   ar
    19    35    36    1
    20    35    37   ar
    21    37    38   ar
    22    31    39    1
    23    39    40   ar
    24    40    41   ar
    25    41    42   ar
    26    42    43    1
    27    42    44   ar
    28    44    45   ar
    29     4     7    1
    30    10    13    1
    31    13    14   ar
    32    14    15   ar
    33    15    19    1
    34    19    20    1
    35    19    21    1
    36    19    22    1
    37    15    16   ar
    38    16    17   ar
    39    17    23    1
    40    23    24    1
    41    23    25    1
    42    23    26    1
    43    17    18   ar
    44     7     1    1
    45    18    13   ar
    46    38    32   ar
    47    45    39   ar
    48    11    12    1
@<TRIPOS>MOLECULE
*****
 45 48 0 0 0
SMALL
GASTEIGER

@<TRIPOS>ATOM
      1 C         139.8487  144.6785  161.7555 C.3     1  UNL1        0.0412
      2 C         140.4677  145.5106  160.6717 C.3     1  UNL1        0.0249
      3 C         140.2955  144.7816  159.3721 C.3     1  UNL1        0.0935
      4 N         139.5700  143.4990  159.6527 N.am    1  UNL1       -0.2795
      5 C         139.1878  142.4622  158.6384 C.2     1  UNL1        0.2256
      6 O         139.5328  142.6643  157.1926 O.2     1  UNL1       -0.2749
      7 C         139.2939  143.4354  161.1257 C.3     1  UNL1        0.0951
      8 C         139.7940  145.0283  163.2131 C.3     1  UNL1        0.0914
      9 O         142.4106  144.1372  164.3790 O.2     1  UNL1       -0.2701
     10 C         141.1315  143.4961  164.8297 C.2     1  UNL1        0.2458
     11 N         139.8233  143.9417  164.2468 N.am    1  UNL1       -0.3008
     12 H         138.9838  143.5210  164.5426 H       1  UNL1        0.1497
     13 C         141.1608  142.4095  165.8634 C.ar    1  UNL1        0.0533
     14 C         141.9877  141.1790  165.6349 C.ar    1  UNL1        0.0083
     15 C         142.0169  140.0924  166.6686 C.ar    1  UNL1        0.0715
     16 C         141.2192  140.2363  167.9307 C.ar    1  UNL1        0.0077
     17 C         140.3923  141.4668  168.1592 C.ar    1  UNL1        0.0715
     18 C         140.3631  142.5534  167.1255 C.ar    1  UNL1        0.0083
     19 C         142.8438  138.8620  166.4400 C.3     1  UNL1        0.4186
     20 F         143.6707  137.6316  166.2114 F       1  UNL1       -0.1659
     21 F         143.0189  138.7045  167.9214 F       1  UNL1       -0.1659
     22 F         142.6688  139.0196  164.9586 F       1  UNL1       -0.1659
     23 C         139.5946  141.6106  169.4213 C.3     1  UNL1        0.4186
     24 F         138.7970  141.7544  170.6835 F       1  UNL1       -0.1659
     25 F         139.1398  140.1867  169.2961 F       1  UNL1       -0.1659
     26 F         140.0495  143.0344  169.5465 F       1  UNL1       -0.1659
     27 C         138.4605  141.2232  159.0698 C.3     1  UNL1        0.0853
     28 C         138.9479  139.8752  158.6278 C.3     1  UNL1        0.0096
     29 C         139.9505  139.1307  159.4587 C.3     1  UNL1        0.0012
     30 C         139.5722  138.6314  160.8216 C.3     1  UNL1        0.0087
     31 C         140.2382  139.1990  162.0399 C.3     1  UNL1        0.0446
     32 C         141.5569  139.9029  161.9145 C.ar    1  UNL1       -0.0183
     33 C         141.6060  141.4014  161.8712 C.ar    1  UNL1       -0.0017
     34 C         142.9247  142.1052  161.7458 C.ar    1  UNL1        0.0293
     35 C         144.1942  141.3105  161.6636 C.ar    1  UNL1        0.1401
     36 F         145.5129  142.0144  161.5382 F       1  UNL1       -0.2042
     37 C         144.1451  139.8120  161.7069 C.ar    1  UNL1        0.0293
     38 C         142.8264  139.1082  161.8323 C.ar    1  UNL1       -0.0017
     39 C         139.5856  139.0628  163.3836 C.ar    1  UNL1       -0.0183
     40 C         138.8546  140.2270  163.9838 C.ar    1  UNL1       -0.0017
     41 C         138.2020  140.0908  165.3275 C.ar    1  UNL1        0.0293
     42 C         138.2804  138.7904  166.0710 C.ar    1  UNL1        0.1401
     43 F         137.6278  138.6542  167.4147 F       1  UNL1       -0.2042
     44 C         139.0114  137.6261  165.4708 C.ar    1  UNL1        0.0293
     45 C         139.6640  137.7623  164.1271 C.ar    1  UNL1       -0.0017
@<TRIPOS>BOND
     1     9    10    2
     2    10    11   am
     3    11     8    1
     4     1     8    1
     5     1     2    1
     6     2     3    1
     7     3     4    1
     8     4     5   am
     9     5     6    2
    10     5    27    1
    11    27    28    1
    12    28    29    1
    13    29    30    1
    14    30    31    1
    15    31    32    1
    16    32    33   ar
    17    33    34   ar
    18    34    35   ar
    19    35    36    1
    20    35    37   ar
    21    37    38   ar
    22    31    39    1
    23    39    40   ar
    24    40    41   ar
    25    41    42   ar
    26    42    43    1
    27    42    44   ar
    28    44    45   ar
    29     4     7    1
    30    10    13    1
    31    13    14   ar
    32    14    15   ar
    33    15    19    1
    34    19    20    1
    35    19    21    1
    36    19    22    1
    37    15    16   ar
    38    16    17   ar
    39    17    23    1
    40    23    24    1
    41    23    25    1
    42    23    26    1
    43    17    18   ar
    44     7     1    1
    45    18    13   ar
    46    38    32   ar
    47    45    39   ar
    48    11    12    1
@<TRIPOS>MOLECULE
*****
 45 48 0 0 0
SMALL
GASTEIGER

@<TRIPOS>ATOM
      1 C         139.4552  144.2347  161.8996 C.3     1  UNL1        0.0412
      2 C         140.5310  144.8228  161.0353 C.3     1  UNL1        0.0249
      3 C         140.5589  144.0580  159.7452 C.3     1  UNL1        0.0935
      4 N         139.5004  142.9974  159.8121 N.am    1  UNL1       -0.2795
      5 C         139.1802  142.0022  158.7364 C.2     1  UNL1        0.2256
      6 O         139.9517  142.0139  157.4501 O.2     1  UNL1       -0.2749
      7 C         138.8183  143.1066  161.1436 C.3     1  UNL1        0.0951
      8 C         139.0819  144.6942  163.2779 C.3     1  UNL1        0.0914
      9 O         141.8586  144.2035  164.3021 O.2     1  UNL1       -0.2701
     10 C         140.6867  143.5439  164.9666 C.2     1  UNL1        0.2458
     11 N         139.2983  143.7892  164.4544 N.am    1  UNL1       -0.3008
     12 H         138.5291  143.3563  164.8905 H       1  UNL1        0.1497
     13 C         140.9030  142.6389  166.1431 C.ar    1  UNL1        0.0533
     14 C         140.3496  143.0105  167.4869 C.ar    1  UNL1        0.0083
     15 C         140.5660  142.1055  168.6635 C.ar    1  UNL1        0.0715
     16 C         141.3358  140.8290  168.4962 C.ar    1  UNL1        0.0077
     17 C         141.8892  140.4575  167.1524 C.ar    1  UNL1        0.0715
     18 C         141.6728  141.3624  165.9759 C.ar    1  UNL1        0.0083
     19 C         140.0126  142.4771  170.0071 C.3     1  UNL1        0.4186
     20 F         139.4591  142.8486  171.3509 F       1  UNL1       -0.1659
     21 F         140.9913  143.6102  170.0970 F       1  UNL1       -0.1659
     22 F         139.0338  141.3439  169.9173 F       1  UNL1       -0.1659
     23 C         142.6590  139.1810  166.9852 C.3     1  UNL1        0.4186
     24 F         143.4288  137.9045  166.8180 F       1  UNL1       -0.1659
     25 F         142.3887  139.2112  165.5101 F       1  UNL1       -0.1659
     26 F         142.9294  139.1508  168.4603 F       1  UNL1       -0.1659
     27 C         138.0884  140.9953  158.9470 C.3     1  UNL1        0.0853
     28 C         138.2474  139.9224  159.9831 C.3     1  UNL1        0.0096
     29 C         139.4688  139.0517  159.9799 C.3     1  UNL1        0.0012
     30 C         139.8209  138.2491  161.1972 C.3     1  UNL1        0.0087
     31 C         140.3717  138.9332  162.4131 C.3     1  UNL1        0.0446
     32 C         141.6789  139.6648  162.3347 C.ar    1  UNL1       -0.0183
     33 C         142.9696  138.9058  162.4232 C.ar    1  UNL1       -0.0017
     34 C         144.2767  139.6374  162.3448 C.ar    1  UNL1        0.0293
     35 C         144.2931  141.1280  162.1778 C.ar    1  UNL1        0.1401
     36 F         145.6003  141.8595  162.0993 F       1  UNL1       -0.2042
     37 C         143.0024  141.8870  162.0892 C.ar    1  UNL1        0.0293
     38 C         141.6953  141.1554  162.1677 C.ar    1  UNL1       -0.0017
     39 C         139.6153  138.8859  163.7076 C.ar    1  UNL1       -0.0183
     40 C         139.6059  137.6284  164.5252 C.ar    1  UNL1       -0.0017
     41 C         138.8495  137.5810  165.8197 C.ar    1  UNL1        0.0293
     42 C         138.1024  138.7912  166.2965 C.ar    1  UNL1        0.1401
     43 F         137.3460  138.7438  167.5909 F       1  UNL1       -0.2042
     44 C         138.1118  140.0488  165.4789 C.ar    1  UNL1        0.0293
     45 C         138.8682  140.0961  164.1844 C.ar    1  UNL1       -0.0017
@<TRIPOS>BOND
     1     9    10    2
     2    10    11   am
     3    11     8    1
     4     1     8    1
     5     1     2    1
     6     2     3    1
     7     3     4    1
     8     4     5   am
     9     5     6    2
    10     5    27    1
    11    27    28    1
    12    28    29    1
    13    29    30    1
    14    30    31    1
    15    31    32    1
    16    32    33   ar
    17    33    34   ar
    18    34    35   ar
    19    35    36    1
    20    35    37   ar
    21    37    38   ar
    22    31    39    1
    23    39    40   ar
    24    40    41   ar
    25    41    42   ar
    26    42    43    1
    27    42    44   ar
    28    44    45   ar
    29     4     7    1
    30    10    13    1
    31    13    14   ar
    32    14    15   ar
    33    15    19    1
    34    19    20    1
    35    19    21    1
    36    19    22    1
    37    15    16   ar
    38    16    17   ar
    39    17    23    1
    40    23    24    1
    41    23    25    1
    42    23    26    1
    43    17    18   ar
    44     7     1    1
    45    18    13   ar
    46    38    32   ar
    47    45    39   ar
    48    11    12    1
