@<TRIPOS>MOLECULE
*****
 29 33 0 0 0
SMALL
GASTEIGER

@<TRIPOS>ATOM
      1 C         141.2537  138.9428  165.0460 C.ar    1  UNL1        0.0681
      2 C         141.7798  139.7728  163.9127 C.ar    1  UNL1        0.0208
      3 C         141.5351  139.3478  162.4952 C.ar    1  UNL1        0.0384
      4 C         140.7644  138.0927  162.2110 C.ar    1  UNL1        0.1385
      5 C         140.2383  137.2628  163.3443 C.ar    1  UNL1        0.0384
      6 C         140.4829  137.6878  164.7618 C.ar    1  UNL1        0.0208
      7 C         143.8112  138.1852  166.4190 C.3     1  UNL1        0.0723
      8 C         142.7771  138.9891  167.1501 C.ar    1  UNL1        0.1268
      9 N         143.0218  139.4141  168.5676 N.ar    1  UNL1       -0.2317
     10 C         141.9877  140.2180  169.2987 C.ar    1  UNL1        0.0902
     11 C         142.2325  140.6431  170.7163 C.ar    1  UNL1        0.0400
     12 C         141.1984  141.4470  171.4473 C.ar    1  UNL1        0.1004
     13 N         139.9196  141.8258  170.7608 N.ar    1  UNL1       -0.2421
     14 C         139.6749  141.4007  169.3433 C.ar    1  UNL1        0.1051
     15 C         140.7090  140.5969  168.6123 C.ar    1  UNL1        0.0933
     16 C         140.4643  140.1718  167.1947 C.ar    1  UNL1        0.2685
     17 O         139.1855  140.5506  166.5082 O.2     1  UNL1       -0.2665
     18 N         141.4984  139.3679  166.4636 N.ar    1  UNL1       -0.2625
     19 O         140.5197  137.6676  160.7934 O.3     1  UNL1       -0.4791
     20 C         139.7260  138.5469  159.8731 C.3     1  UNL1        0.1687
     21 C         140.1165  138.6685  158.4299 C.3     1  UNL1        0.0609
     22 C         139.3228  139.5477  157.5097 C.3     1  UNL1        0.0758
     23 N         138.1385  140.3054  158.0326 N.3     1  UNL1       -0.2737
     24 C         137.7479  140.1838  159.4757 C.3     1  UNL1        0.0758
     25 C         138.5417  139.3045  160.3960 C.3     1  UNL1        0.0609
     26 C         137.3447  141.1846  157.1123 C.3     1  UNL1        0.0575
     27 C         137.3813  142.6372  156.7397 C.3     1  UNL1        0.0160
     28 C         136.2222  142.4281  155.8109 C.3     1  UNL1        0.0028
     29 C         136.1856  140.9756  156.1835 C.3     1  UNL1        0.0160
@<TRIPOS>BOND
     1     7     8    1
     2     8     9   ar
     3     9    10   ar
     4    10    11   ar
     5    11    12   ar
     6    12    13   ar
     7    13    14   ar
     8    14    15   ar
     9    15    16   ar
    10    16    17    2
    11    16    18   ar
    12    18     1    1
    13     1     2   ar
    14     2     3   ar
    15     3     4   ar
    16     4    19    1
    17    19    20    1
    18    20    21    1
    19    21    22    1
    20    22    23    1
    21    23    26    1
    22    26    27    1
    23    27    28    1
    24    28    29    1
    25    23    24    1
    26    24    25    1
    27     4     5   ar
    28     5     6   ar
    29    18     8   ar
    30     6     1   ar
    31    15    10   ar
    32    25    20    1
    33    29    26    1
@<TRIPOS>MOLECULE
*****
 29 33 0 0 0
SMALL
GASTEIGER

@<TRIPOS>ATOM
      1 C         138.9810  140.6546  164.8360 C.ar    1  UNL1        0.0681
      2 C         139.8501  139.8771  163.8925 C.ar    1  UNL1        0.0208
      3 C         139.5327  139.8543  162.4267 C.ar    1  UNL1        0.0384
      4 C         138.3463  140.6090  161.9044 C.ar    1  UNL1        0.1385
      5 C         137.4773  141.3865  162.8479 C.ar    1  UNL1        0.0384
      6 C         137.7946  141.4093  164.3138 C.ar    1  UNL1        0.0208
      7 C         137.9244  138.4974  166.6332 C.3     1  UNL1        0.0723
      8 C         138.7701  139.5988  167.2005 C.ar    1  UNL1        0.1268
      9 N         139.0875  139.6215  168.6664 N.ar    1  UNL1       -0.2317
     10 C         139.9332  140.7229  169.2337 C.ar    1  UNL1        0.0902
     11 C         140.2506  140.7456  170.6995 C.ar    1  UNL1        0.0400
     12 C         141.0963  141.8469  171.2668 C.ar    1  UNL1        0.1004
     13 N         141.6246  142.9255  170.3682 N.ar    1  UNL1       -0.2421
     14 C         141.3073  142.9028  168.9023 C.ar    1  UNL1        0.1051
     15 C         140.4616  141.8015  168.3351 C.ar    1  UNL1        0.0933
     16 C         140.1442  141.7787  166.8692 C.ar    1  UNL1        0.2685
     17 O         140.6725  142.8573  165.9706 O.2     1  UNL1       -0.2665
     18 N         139.2984  140.6774  166.3020 N.ar    1  UNL1       -0.2625
     19 O         138.0289  140.5863  160.4385 O.3     1  UNL1       -0.4791
     20 C         138.5035  141.6985  159.5510 C.3     1  UNL1        0.1687
     21 C         139.3794  142.7812  160.1086 C.3     1  UNL1        0.0609
     22 C         139.8540  143.8935  159.2211 C.3     1  UNL1        0.0758
     23 N         139.4528  143.9231  157.7760 N.3     1  UNL1       -0.2737
     24 C         138.5770  142.8404  157.2185 C.3     1  UNL1        0.0758
     25 C         138.1024  141.7282  158.1060 C.3     1  UNL1        0.0609
     26 C         139.9274  145.0353  156.8885 C.3     1  UNL1        0.0575
     27 C         139.2949  145.8941  155.8337 C.3     1  UNL1        0.0160
     28 C         140.5986  146.6083  155.6335 C.3     1  UNL1        0.0028
     29 C         141.2311  145.7496  156.6882 C.3     1  UNL1        0.0160
@<TRIPOS>BOND
     1     7     8    1
     2     8     9   ar
     3     9    10   ar
     4    10    11   ar
     5    11    12   ar
     6    12    13   ar
     7    13    14   ar
     8    14    15   ar
     9    15    16   ar
    10    16    17    2
    11    16    18   ar
    12    18     1    1
    13     1     2   ar
    14     2     3   ar
    15     3     4   ar
    16     4    19    1
    17    19    20    1
    18    20    21    1
    19    21    22    1
    20    22    23    1
    21    23    26    1
    22    26    27    1
    23    27    28    1
    24    28    29    1
    25    23    24    1
    26    24    25    1
    27     4     5   ar
    28     5     6   ar
    29    18     8   ar
    30     6     1   ar
    31    15    10   ar
    32    25    20    1
    33    29    26    1
@<TRIPOS>MOLECULE
*****
 29 33 0 0 0
SMALL
GASTEIGER

@<TRIPOS>ATOM
      1 C         140.4923  139.0569  164.8692 C.ar    1  UNL1        0.0681
      2 C         140.0035  139.9912  163.8023 C.ar    1  UNL1        0.0208
      3 C         140.0779  139.5869  162.3597 C.ar    1  UNL1        0.0384
      4 C         140.6411  138.2484  161.9841 C.ar    1  UNL1        0.1385
      5 C         141.1299  137.3141  163.0510 C.ar    1  UNL1        0.0384
      6 C         141.0555  137.7184  164.4935 C.ar    1  UNL1        0.0208
      7 C         137.9301  138.7164  166.3921 C.3     1  UNL1        0.0723
      8 C         139.1368  139.2910  167.0733 C.ar    1  UNL1        0.1268
      9 N         139.0623  139.6953  168.5158 N.ar    1  UNL1       -0.2317
     10 C         140.2690  140.2699  169.1970 C.ar    1  UNL1        0.0902
     11 C         140.1945  140.6741  170.6395 C.ar    1  UNL1        0.0400
     12 C         141.4012  141.2487  171.3206 C.ar    1  UNL1        0.1004
     13 N         142.6822  141.4190  170.5591 N.ar    1  UNL1       -0.2421
     14 C         142.7567  141.0147  169.1166 C.ar    1  UNL1        0.1051
     15 C         141.5501  140.4401  168.4355 C.ar    1  UNL1        0.0933
     16 C         141.6245  140.0358  166.9929 C.ar    1  UNL1        0.2685
     17 O         142.9056  140.2061  166.2314 O.2     1  UNL1       -0.2665
     18 N         140.4179  139.4612  166.3118 N.ar    1  UNL1       -0.2625
     19 O         140.7155  137.8441  160.5415 O.3     1  UNL1       -0.4791
     20 C         141.7220  138.4864  159.6335 C.3     1  UNL1        0.1687
     21 C         142.8308  139.3159  160.2104 C.3     1  UNL1        0.0609
     22 C         143.8373  139.9582  159.3025 C.3     1  UNL1        0.0758
     23 N         143.7351  139.7710  157.8177 N.3     1  UNL1       -0.2737
     24 C         142.6263  138.9416  157.2409 C.3     1  UNL1        0.0758
     25 C         141.6198  138.2993  158.1488 C.3     1  UNL1        0.0609
     26 C         144.7416  140.4134  156.9097 C.3     1  UNL1        0.0575
     27 C         145.5456  141.6793  156.9442 C.3     1  UNL1        0.0160
     28 C         146.1650  141.3217  155.6257 C.3     1  UNL1        0.0028
     29 C         145.3611  140.0559  155.5912 C.3     1  UNL1        0.0160
@<TRIPOS>BOND
     1     7     8    1
     2     8     9   ar
     3     9    10   ar
     4    10    11   ar
     5    11    12   ar
     6    12    13   ar
     7    13    14   ar
     8    14    15   ar
     9    15    16   ar
    10    16    17    2
    11    16    18   ar
    12    18     1    1
    13     1     2   ar
    14     2     3   ar
    15     3     4   ar
    16     4    19    1
    17    19    20    1
    18    20    21    1
    19    21    22    1
    20    22    23    1
    21    23    26    1
    22    26    27    1
    23    27    28    1
    24    28    29    1
    25    23    24    1
    26    24    25    1
    27     4     5   ar
    28     5     6   ar
    29    18     8   ar
    30     6     1   ar
    31    15    10   ar
    32    25    20    1
    33    29    26    1
@<TRIPOS>MOLECULE
*****
 29 33 0 0 0
SMALL
GASTEIGER

@<TRIPOS>ATOM
      1 C         142.1372  138.7768  159.7608 C.ar    1  UNL1        0.0681
      2 C         142.7223  137.9667  160.8795 C.ar    1  UNL1        0.0208
      3 C         141.8634  137.5604  162.0401 C.ar    1  UNL1        0.0384
      4 C         140.4194  137.9642  162.0821 C.ar    1  UNL1        0.1385
      5 C         139.8343  138.7743  160.9635 C.ar    1  UNL1        0.0384
      6 C         140.6932  139.1806  159.8028 C.ar    1  UNL1        0.0208
      7 C         142.2554  137.0549  157.3071 C.3     1  UNL1        0.0723
      8 C         143.0553  138.3221  157.3732 C.ar    1  UNL1        0.1268
      9 N         143.9142  138.7284  156.2126 N.ar    1  UNL1       -0.2317
     10 C         144.7140  139.9957  156.2787 C.ar    1  UNL1        0.0902
     11 C         145.5730  140.4019  155.1181 C.ar    1  UNL1        0.0400
     12 C         146.3727  141.6691  155.1843 C.ar    1  UNL1        0.1004
     13 N         146.3136  142.5301  156.4111 N.ar    1  UNL1       -0.2421
     14 C         145.4547  142.1239  157.5718 C.ar    1  UNL1        0.1051
     15 C         144.6549  140.8567  157.5056 C.ar    1  UNL1        0.0933
     16 C         143.7960  140.4503  158.6663 C.ar    1  UNL1        0.2685
     17 O         143.7368  141.3113  159.8932 O.2     1  UNL1       -0.2665
     18 N         142.9962  139.1831  158.6001 N.ar    1  UNL1       -0.2625
     19 O         139.5605  137.5579  163.2428 O.3     1  UNL1       -0.4791
     20 C         139.6103  138.3390  164.5224 C.3     1  UNL1        0.1687
     21 C         140.7946  139.2088  164.8245 C.3     1  UNL1        0.0609
     22 C         140.8444  139.9900  166.1041 C.3     1  UNL1        0.0758
     23 N         139.7101  139.9013  167.0816 N.3     1  UNL1       -0.2737
     24 C         138.5259  139.0316  166.7795 C.3     1  UNL1        0.0758
     25 C         138.4760  138.2505  165.4999 C.3     1  UNL1        0.0609
     26 C         139.7599  140.6825  168.3612 C.3     1  UNL1        0.0575
     27 C         140.3952  141.9708  168.7933 C.3     1  UNL1        0.0160
     28 C         139.8304  141.7872  170.1707 C.3     1  UNL1        0.0028
     29 C         139.1952  140.4990  169.7386 C.3     1  UNL1        0.0160
@<TRIPOS>BOND
     1     7     8    1
     2     8     9   ar
     3     9    10   ar
     4    10    11   ar
     5    11    12   ar
     6    12    13   ar
     7    13    14   ar
     8    14    15   ar
     9    15    16   ar
    10    16    17    2
    11    16    18   ar
    12    18     1    1
    13     1     2   ar
    14     2     3   ar
    15     3     4   ar
    16     4    19    1
    17    19    20    1
    18    20    21    1
    19    21    22    1
    20    22    23    1
    21    23    26    1
    22    26    27    1
    23    27    28    1
    24    28    29    1
    25    23    24    1
    26    24    25    1
    27     4     5   ar
    28     5     6   ar
    29    18     8   ar
    30     6     1   ar
    31    15    10   ar
    32    25    20    1
    33    29    26    1
@<TRIPOS>MOLECULE
*****
 29 33 0 0 0
SMALL
GASTEIGER

@<TRIPOS>ATOM
      1 C         142.4544  138.7706  159.4982 C.ar    1  UNL1        0.0681
      2 C         143.0101  137.7382  160.4338 C.ar    1  UNL1        0.0208
      3 C         143.8297  138.1615  161.6165 C.ar    1  UNL1        0.0384
      4 C         144.0937  139.6172  161.8637 C.ar    1  UNL1        0.1385
      5 C         143.5380  140.6496  160.9281 C.ar    1  UNL1        0.0384
      6 C         142.7183  140.2263  159.7454 C.ar    1  UNL1        0.0208
      7 C         139.4632  138.6693  159.7051 C.3     1  UNL1        0.0723
      8 C         140.1391  138.2966  158.4189 C.ar    1  UNL1        0.1268
      9 N         139.3194  137.8733  157.2361 N.ar    1  UNL1       -0.2317
     10 C         139.9953  137.5006  155.9499 C.ar    1  UNL1        0.0902
     11 C         139.1756  137.0772  154.7672 C.ar    1  UNL1        0.0400
     12 C         139.8514  136.7045  153.4810 C.ar    1  UNL1        0.1004
     13 N         141.3470  136.7552  153.3776 N.ar    1  UNL1       -0.2421
     14 C         142.1667  137.1785  154.5603 C.ar    1  UNL1        0.1051
     15 C         141.4908  137.5512  155.8464 C.ar    1  UNL1        0.0933
     16 C         142.3105  137.9746  157.0292 C.ar    1  UNL1        0.2685
     17 O         143.8061  138.0252  156.9258 O.2     1  UNL1       -0.2665
     18 N         141.6347  138.3472  158.3154 N.ar    1  UNL1       -0.2625
     19 O         144.9134  140.0405  163.0465 O.3     1  UNL1       -0.4791
     20 C         144.2387  140.5875  164.2694 C.3     1  UNL1        0.1687
     21 C         143.4832  139.6688  165.1834 C.3     1  UNL1        0.0609
     22 C         142.8085  140.2158  166.4064 C.3     1  UNL1        0.0758
     23 N         142.8893  141.6815  166.7153 N.3     1  UNL1       -0.2737
     24 C         143.6447  142.6001  165.8013 C.3     1  UNL1        0.0758
     25 C         144.3194  142.0531  164.5784 C.3     1  UNL1        0.0609
     26 C         142.2146  142.2285  167.9382 C.3     1  UNL1        0.0575
     27 C         140.8173  142.6564  168.2770 C.3     1  UNL1        0.0160
     28 C         141.2604  143.0020  169.6677 C.3     1  UNL1        0.0028
     29 C         142.6575  142.5741  169.3290 C.3     1  UNL1        0.0160
@<TRIPOS>BOND
     1     7     8    1
     2     8     9   ar
     3     9    10   ar
     4    10    11   ar
     5    11    12   ar
     6    12    13   ar
     7    13    14   ar
     8    14    15   ar
     9    15    16   ar
    10    16    17    2
    11    16    18   ar
    12    18     1    1
    13     1     2   ar
    14     2     3   ar
    15     3     4   ar
    16     4    19    1
    17    19    20    1
    18    20    21    1
    19    21    22    1
    20    22    23    1
    21    23    26    1
    22    26    27    1
    23    27    28    1
    24    28    29    1
    25    23    24    1
    26    24    25    1
    27     4     5   ar
    28     5     6   ar
    29    18     8   ar
    30     6     1   ar
    31    15    10   ar
    32    25    20    1
    33    29    26    1
@<TRIPOS>MOLECULE
*****
 29 33 0 0 0
SMALL
GASTEIGER

@<TRIPOS>ATOM
      1 C         139.3976  140.8575  164.6698 C.ar    1  UNL1        0.0681
      2 C         140.4414  140.2530  163.7782 C.ar    1  UNL1        0.0208
      3 C         140.2749  140.3021  162.2883 C.ar    1  UNL1        0.0384
      4 C         139.0646  140.9558  161.6901 C.ar    1  UNL1        0.1385
      5 C         138.0209  141.5603  162.5817 C.ar    1  UNL1        0.0384
      6 C         138.1874  141.5111  164.0716 C.ar    1  UNL1        0.0208
      7 C         138.1954  138.6014  166.2399 C.3     1  UNL1        0.0723
      8 C         138.9631  139.6803  166.9448 C.ar    1  UNL1        0.1268
      9 N         139.1296  139.6311  168.4347 N.ar    1  UNL1       -0.2317
     10 C         139.8973  140.7099  169.1397 C.ar    1  UNL1        0.0902
     11 C         140.0638  140.6607  170.6295 C.ar    1  UNL1        0.0400
     12 C         140.8314  141.7395  171.3344 C.ar    1  UNL1        0.1004
     13 N         141.4325  142.8675  170.5494 N.ar    1  UNL1       -0.2421
     14 C         141.2660  142.9167  169.0595 C.ar    1  UNL1        0.1051
     15 C         140.4984  141.8379  168.3546 C.ar    1  UNL1        0.0933
     16 C         140.3318  141.8871  166.8647 C.ar    1  UNL1        0.2685
     17 O         140.9329  143.0151  166.0797 O.2     1  UNL1       -0.2665
     18 N         139.5642  140.8083  166.1598 N.ar    1  UNL1       -0.2625
     19 O         138.8981  141.0049  160.2001 O.3     1  UNL1       -0.4791
     20 C         139.8719  140.2881  159.3125 C.3     1  UNL1        0.1687
     21 C         141.0728  141.0113  158.7785 C.3     1  UNL1        0.0609
     22 C         142.0466  140.2945  157.8909 C.3     1  UNL1        0.0758
     23 N         141.8196  138.8544  157.5374 N.3     1  UNL1       -0.2737
     24 C         140.6189  138.1313  158.0714 C.3     1  UNL1        0.0758
     25 C         139.6450  138.8482  158.9590 C.3     1  UNL1        0.0609
     26 C         142.7935  138.1376  156.6498 C.3     1  UNL1        0.0575
     27 C         143.1513  136.7007  156.4103 C.3     1  UNL1        0.0160
     28 C         144.1707  137.1239  155.3946 C.3     1  UNL1        0.0028
     29 C         143.8129  138.5607  155.6341 C.3     1  UNL1        0.0160
@<TRIPOS>BOND
     1     7     8    1
     2     8     9   ar
     3     9    10   ar
     4    10    11   ar
     5    11    12   ar
     6    12    13   ar
     7    13    14   ar
     8    14    15   ar
     9    15    16   ar
    10    16    17    2
    11    16    18   ar
    12    18     1    1
    13     1     2   ar
    14     2     3   ar
    15     3     4   ar
    16     4    19    1
    17    19    20    1
    18    20    21    1
    19    21    22    1
    20    22    23    1
    21    23    26    1
    22    26    27    1
    23    27    28    1
    24    28    29    1
    25    23    24    1
    26    24    25    1
    27     4     5   ar
    28     5     6   ar
    29    18     8   ar
    30     6     1   ar
    31    15    10   ar
    32    25    20    1
    33    29    26    1
@<TRIPOS>MOLECULE
*****
 29 33 0 0 0
SMALL
GASTEIGER

@<TRIPOS>ATOM
      1 C         140.7453  139.1317  164.8357 C.ar    1  UNL1        0.0681
      2 C         140.8727  140.2003  163.7908 C.ar    1  UNL1        0.0208
      3 C         140.4607  139.9190  162.3762 C.ar    1  UNL1        0.0384
      4 C         139.9213  138.5691  162.0066 C.ar    1  UNL1        0.1385
      5 C         139.7938  137.5005  163.0515 C.ar    1  UNL1        0.0384
      6 C         140.2058  137.7818  164.4661 C.ar    1  UNL1        0.0208
      7 C         143.5563  138.5688  165.7195 C.3     1  UNL1        0.0723
      8 C         142.5628  139.1316  166.6922 C.ar    1  UNL1        0.1268
      9 N         142.9749  139.4130  168.1068 N.ar    1  UNL1       -0.2317
     10 C         141.9814  139.9758  169.0796 C.ar    1  UNL1        0.0902
     11 C         142.3934  140.2572  170.4941 C.ar    1  UNL1        0.0400
     12 C         141.4000  140.8200  171.4668 C.ar    1  UNL1        0.1004
     13 N         139.9944  141.1015  171.0250 N.ar    1  UNL1       -0.2421
     14 C         139.5824  140.8201  169.6104 C.ar    1  UNL1        0.1051
     15 C         140.5758  140.2573  168.6377 C.ar    1  UNL1        0.0933
     16 C         140.1638  139.9759  167.2231 C.ar    1  UNL1        0.2685
     17 O         138.7583  140.2574  166.7812 O.2     1  UNL1       -0.2665
     18 N         141.1573  139.4131  166.2504 N.ar    1  UNL1       -0.2625
     19 O         139.5092  138.2877  160.5920 O.3     1  UNL1       -0.4791
     20 C         140.5006  138.4432  159.4770 C.3     1  UNL1        0.1687
     21 C         140.0321  138.8292  158.1053 C.3     1  UNL1        0.0609
     22 C         141.0234  138.9847  156.9904 C.3     1  UNL1        0.0758
     23 N         142.4832  138.7542  157.2472 N.3     1  UNL1       -0.2737
     24 C         142.9517  138.3682  158.6189 C.3     1  UNL1        0.0758
     25 C         141.9603  138.2127  159.7338 C.3     1  UNL1        0.0609
     26 C         143.4746  138.9097  156.1322 C.3     1  UNL1        0.0575
     27 C         144.5294  139.9177  155.7837 C.3     1  UNL1        0.0160
     28 C         144.8765  139.1296  154.5555 C.3     1  UNL1        0.0028
     29 C         143.8218  138.1217  154.9040 C.3     1  UNL1        0.0160
@<TRIPOS>BOND
     1     7     8    1
     2     8     9   ar
     3     9    10   ar
     4    10    11   ar
     5    11    12   ar
     6    12    13   ar
     7    13    14   ar
     8    14    15   ar
     9    15    16   ar
    10    16    17    2
    11    16    18   ar
    12    18     1    1
    13     1     2   ar
    14     2     3   ar
    15     3     4   ar
    16     4    19    1
    17    19    20    1
    18    20    21    1
    19    21    22    1
    20    22    23    1
    21    23    26    1
    22    26    27    1
    23    27    28    1
    24    28    29    1
    25    23    24    1
    26    24    25    1
    27     4     5   ar
    28     5     6   ar
    29    18     8   ar
    30     6     1   ar
    31    15    10   ar
    32    25    20    1
    33    29    26    1
@<TRIPOS>MOLECULE
*****
 29 33 0 0 0
SMALL
GASTEIGER

@<TRIPOS>ATOM
      1 C         141.3957  139.7349  163.5024 C.ar    1  UNL1        0.0681
      2 C         141.7129  140.9974  162.7571 C.ar    1  UNL1        0.0208
      3 C         141.5082  141.0636  161.2726 C.ar    1  UNL1        0.0384
      4 C         140.9864  139.8672  160.5334 C.ar    1  UNL1        0.1385
      5 C         140.6693  138.6047  161.2787 C.ar    1  UNL1        0.0384
      6 C         140.8739  138.5385  162.7632 C.ar    1  UNL1        0.0208
      7 C         144.1211  139.1597  164.6165 C.3     1  UNL1        0.0723
      8 C         142.9632  139.3811  165.5440 C.ar    1  UNL1        0.1268
      9 N         143.1679  139.3150  167.0285 N.ar    1  UNL1       -0.2317
     10 C         142.0099  139.5365  167.9559 C.ar    1  UNL1        0.0902
     11 C         142.2147  139.4703  169.4404 C.ar    1  UNL1        0.0400
     12 C         141.0567  139.6918  170.3677 C.ar    1  UNL1        0.1004
     13 N         139.6940  139.9794  169.8107 N.ar    1  UNL1       -0.2421
     14 C         139.4893  140.0455  168.3262 C.ar    1  UNL1        0.1051
     15 C         140.6472  139.8241  167.3988 C.ar    1  UNL1        0.0933
     16 C         140.4425  139.8902  165.9143 C.ar    1  UNL1        0.2685
     17 O         139.0798  140.1778  165.3572 O.2     1  UNL1       -0.2665
     18 N         141.6005  139.6687  164.9869 N.ar    1  UNL1       -0.2625
     19 O         140.7817  139.9334  159.0489 O.3     1  UNL1       -0.4791
     20 C         141.1164  138.7485  158.1922 C.3     1  UNL1        0.1687
     21 C         140.0760  138.1608  157.2853 C.3     1  UNL1        0.0609
     22 C         140.4107  136.9759  156.4286 C.3     1  UNL1        0.0758
     23 N         141.7859  136.3787  156.4787 N.3     1  UNL1       -0.2737
     24 C         142.8262  136.9664  157.3855 C.3     1  UNL1        0.0758
     25 C         142.4914  138.1513  158.2422 C.3     1  UNL1        0.0609
     26 C         142.1206  135.1939  155.6219 C.3     1  UNL1        0.0575
     27 C         143.2069  134.1594  155.6199 C.3     1  UNL1        0.0160
     28 C         142.5940  133.5182  154.4103 C.3     1  UNL1        0.0028
     29 C         141.5078  134.5526  154.4123 C.3     1  UNL1        0.0160
@<TRIPOS>BOND
     1     7     8    1
     2     8     9   ar
     3     9    10   ar
     4    10    11   ar
     5    11    12   ar
     6    12    13   ar
     7    13    14   ar
     8    14    15   ar
     9    15    16   ar
    10    16    17    2
    11    16    18   ar
    12    18     1    1
    13     1     2   ar
    14     2     3   ar
    15     3     4   ar
    16     4    19    1
    17    19    20    1
    18    20    21    1
    19    21    22    1
    20    22    23    1
    21    23    26    1
    22    26    27    1
    23    27    28    1
    24    28    29    1
    25    23    24    1
    26    24    25    1
    27     4     5   ar
    28     5     6   ar
    29    18     8   ar
    30     6     1   ar
    31    15    10   ar
    32    25    20    1
    33    29    26    1
@<TRIPOS>MOLECULE
*****
 29 33 0 0 0
SMALL
GASTEIGER

@<TRIPOS>ATOM
      1 C         140.1196  138.9287  160.2123 C.ar    1  UNL1        0.0681
      2 C         139.2926  138.0071  161.0590 C.ar    1  UNL1        0.0208
      3 C         138.5316  138.5478  162.2331 C.ar    1  UNL1        0.0384
      4 C         138.5977  140.0100  162.5606 C.ar    1  UNL1        0.1385
      5 C         139.4247  140.9316  161.7140 C.ar    1  UNL1        0.0384
      6 C         140.1856  140.3909  160.5398 C.ar    1  UNL1        0.0208
      7 C         142.9110  137.8936  160.5819 C.3     1  UNL1        0.0723
      8 C         142.2762  137.8703  159.2229 C.ar    1  UNL1        0.1268
      9 N         143.0372  137.3296  158.0489 N.ar    1  UNL1       -0.2317
     10 C         142.4024  137.3064  156.6899 C.ar    1  UNL1        0.0902
     11 C         143.1634  136.7656  155.5158 C.ar    1  UNL1        0.0400
     12 C         142.5286  136.7424  154.1570 C.ar    1  UNL1        0.1004
     13 N         141.1329  137.2600  153.9722 N.ar    1  UNL1       -0.2421
     14 C         140.3719  137.8007  155.1463 C.ar    1  UNL1        0.1051
     15 C         141.0067  137.8239  156.5052 C.ar    1  UNL1        0.0933
     16 C         140.2457  138.3647  157.6793 C.ar    1  UNL1        0.2685
     17 O         138.8500  138.8822  157.4946 O.2     1  UNL1       -0.2665
     18 N         140.8805  138.3879  159.0382 N.ar    1  UNL1       -0.2625
     19 O         137.8367  140.5508  163.7347 O.3     1  UNL1       -0.4791
     20 C         138.4747  140.5820  165.0920 C.3     1  UNL1        0.1687
     21 C         139.3764  141.7193  165.4709 C.3     1  UNL1        0.0609
     22 C         140.0144  141.7505  166.8281 C.3     1  UNL1        0.0758
     23 N         139.7506  140.6443  167.8064 N.3     1  UNL1       -0.2737
     24 C         138.8490  139.5071  167.4274 C.3     1  UNL1        0.0758
     25 C         138.2110  139.4759  166.0702 C.3     1  UNL1        0.0609
     26 C         140.3886  140.6755  169.1636 C.3     1  UNL1        0.0575
     27 C         141.6075  141.3257  169.7480 C.3     1  UNL1        0.0160
     28 C         141.2908  140.7196  171.0830 C.3     1  UNL1        0.0028
     29 C         140.0720  140.0694  170.4986 C.3     1  UNL1        0.0160
@<TRIPOS>BOND
     1     7     8    1
     2     8     9   ar
     3     9    10   ar
     4    10    11   ar
     5    11    12   ar
     6    12    13   ar
     7    13    14   ar
     8    14    15   ar
     9    15    16   ar
    10    16    17    2
    11    16    18   ar
    12    18     1    1
    13     1     2   ar
    14     2     3   ar
    15     3     4   ar
    16     4    19    1
    17    19    20    1
    18    20    21    1
    19    21    22    1
    20    22    23    1
    21    23    26    1
    22    26    27    1
    23    27    28    1
    24    28    29    1
    25    23    24    1
    26    24    25    1
    27     4     5   ar
    28     5     6   ar
    29    18     8   ar
    30     6     1   ar
    31    15    10   ar
    32    25    20    1
    33    29    26    1
