@<TRIPOS>MOLECULE
*****
 44 48 0 0 0
SMALL
GASTEIGER

@<TRIPOS>ATOM
      1 C         142.7196  137.7024  157.2384 C.ar    1  UNL1        0.1255
      2 N         142.2399  137.5930  158.6554 N.ar    1  UNL1       -0.2304
      3 C         142.7027  138.8121  159.3967 C.ar    1  UNL1        0.1035
      4 C         143.4684  139.6749  158.4379 C.ar    1  UNL1        0.1142
      5 C         144.1575  140.9964  158.6071 C.ar    1  UNL1        0.1432
      6 N         144.1471  141.6823  159.9411 N.pl3   1  UNL1       -0.3414
      7 N         144.8570  141.6321  157.4424 N.ar    1  UNL1       -0.2265
      8 C         144.8674  140.9462  156.1084 C.ar    1  UNL1        0.1193
      9 C         144.1783  139.6247  155.9392 C.ar    1  UNL1        0.1020
     10 N         143.4788  138.9890  157.1039 N.ar    1  UNL1       -0.2884
     11 H         143.6880  141.2651  160.7055 H       1  UNL1        0.1438
     12 H         144.5993  142.5497  160.0522 H       1  UNL1        0.1438
     13 C         142.3365  132.7639  155.6683 C.2     1  UNL1        0.2252
     14 O         142.6206  132.2977  157.0654 O.2     1  UNL1       -0.2749
     15 N         142.2902  134.2316  155.3622 N.am    1  UNL1       -0.2791
     16 C         142.0061  134.6978  153.9651 C.3     1  UNL1        0.0934
     17 C         141.9598  136.1655  153.6591 C.3     1  UNL1        0.0220
     18 C         142.1976  137.1670  154.7502 C.3     1  UNL1        0.0110
     19 C         142.4817  136.7009  156.1473 C.3     1  UNL1        0.0771
     20 C         142.5280  135.2331  156.4533 C.3     1  UNL1        0.1008
     21 C         140.7145  131.2415  154.3260 C.3     1  UNL1        0.0096
     22 C         142.0986  131.7624  154.5772 C.3     1  UNL1        0.0767
     23 C         143.2448  131.2819  153.7374 C.3     1  UNL1        0.0096
     24 C         142.4451  139.1153  160.8430 C.ar    1  UNL1        0.0467
     25 C         141.3353  140.0481  161.2277 C.ar    1  UNL1        0.0039
     26 C         141.0776  140.3512  162.6740 C.ar    1  UNL1        0.0047
     27 C         141.9299  139.7215  163.7356 C.ar    1  UNL1        0.0559
     28 C         143.0397  138.7887  163.3510 C.ar    1  UNL1        0.0342
     29 C         143.2974  138.4855  161.9047 C.ar    1  UNL1        0.1417
     30 F         144.4072  137.5527  161.5201 F       1  UNL1       -0.2041
     31 C         141.6723  140.0247  165.1819 C.2     1  UNL1        0.2506
     32 O         140.2638  140.1472  165.6831 O.2     1  UNL1       -0.2698
     33 N         142.8230  140.2053  166.1269 N.am    1  UNL1       -0.2658
     34 H         143.7475  140.1249  165.7979 H       1  UNL1        0.1566
     35 C         142.5653  140.5084  167.5732 C.ar    1  UNL1        0.1343
     36 C         142.0464  141.8570  167.9759 C.ar    1  UNL1        0.0383
     37 C         141.7886  142.1602  169.4221 C.ar    1  UNL1        0.0757
     38 C         142.0498  141.1149  170.4656 C.ar    1  UNL1        0.0246
     39 C         142.5688  139.7663  170.0630 C.ar    1  UNL1        0.1003
     40 N         142.8265  139.4631  168.6167 N.ar    1  UNL1       -0.2290
     41 C         141.2697  143.5088  169.8248 C.3     1  UNL1        0.4187
     42 F         140.7508  144.8573  170.2274 F       1  UNL1       -0.1659
     43 F         142.5629  143.7964  170.5282 F       1  UNL1       -0.1659
     44 F         139.9765  143.2212  169.1213 F       1  UNL1       -0.1659
@<TRIPOS>BOND
     1    21    22    1
     2    22    23    1
     3    22    13    1
     4    13    14    2
     5    13    15   am
     6    15    16    1
     7    16    17    1
     8    17    18    1
     9    18    19    1
    10    19     1    1
    11     1     2   ar
    12     2     3   ar
    13     3    24    1
    14    24    25   ar
    15    25    26   ar
    16    26    27   ar
    17    27    31    1
    18    31    32    2
    19    31    33   am
    20    33    35    1
    21    35    36   ar
    22    36    37   ar
    23    37    41    1
    24    41    42    1
    25    41    43    1
    26    41    44    1
    27    37    38   ar
    28    38    39   ar
    29    39    40   ar
    30    27    28   ar
    31    28    29   ar
    32    29    30    1
    33     3     4   ar
    34     4     5   ar
    35     5     6    1
    36     5     7   ar
    37     7     8   ar
    38     8     9   ar
    39     9    10   ar
    40    19    20    1
    41    20    15    1
    42    10     1   ar
    43    29    24   ar
    44    10     4   ar
    45    40    35   ar
    46    33    34    1
    47     6    11    1
    48     6    12    1
@<TRIPOS>MOLECULE
*****
 44 48 0 0 0
SMALL
GASTEIGER

@<TRIPOS>ATOM
      1 C         140.9832  141.7740  164.1164 C.ar    1  UNL1        0.1255
      2 N         142.0341  141.2961  163.1587 N.ar    1  UNL1       -0.2304
      3 C         141.8722  142.0565  161.8759 C.ar    1  UNL1        0.1035
      4 C         140.7212  143.0042  162.0408 C.ar    1  UNL1        0.1142
      5 C         140.1025  144.0035  161.1089 C.ar    1  UNL1        0.1432
      6 N         140.6519  144.1781  159.7241 N.pl3   1  UNL1       -0.3414
      7 N         138.9344  144.8283  161.5618 N.ar    1  UNL1       -0.2265
      8 C         138.3849  144.6537  162.9466 C.ar    1  UNL1        0.1193
      9 C         139.0036  143.6543  163.8785 C.ar    1  UNL1        0.1020
     10 N         140.1718  142.8296  163.4255 N.ar    1  UNL1       -0.2884
     11 H         141.4186  143.6368  159.4268 H       1  UNL1        0.1438
     12 H         140.2458  144.8341  159.1125 H       1  UNL1        0.1438
     13 C         142.4595  141.6393  169.0966 C.2     1  UNL1        0.2252
     14 O         143.6051  142.5549  168.7818 O.2     1  UNL1       -0.2749
     15 N         141.5176  141.2151  168.0091 N.am    1  UNL1       -0.2791
     16 C         140.3719  140.2995  168.3239 C.3     1  UNL1        0.0934
     17 C         139.4301  139.8754  167.2363 C.3     1  UNL1        0.0220
     18 C         139.6338  140.3669  165.8338 C.3     1  UNL1        0.0110
     19 C         140.7794  141.2825  165.5189 C.3     1  UNL1        0.0771
     20 C         141.7213  141.7066  166.6066 C.3     1  UNL1        0.1008
     21 C         143.0166  139.9531  170.9932 C.3     1  UNL1        0.0096
     22 C         142.2557  141.1478  170.4991 C.3     1  UNL1        0.0767
     23 C         141.2912  141.8509  171.4075 C.3     1  UNL1        0.0096
     24 C         142.7135  141.8971  160.6443 C.ar    1  UNL1        0.0467
     25 C         142.3015  140.9299  159.5745 C.ar    1  UNL1        0.0039
     26 C         143.1428  140.7705  158.3429 C.ar    1  UNL1        0.0047
     27 C         144.3962  141.5784  158.1811 C.ar    1  UNL1        0.0559
     28 C         144.8083  142.5457  159.2510 C.ar    1  UNL1        0.0342
     29 C         143.9670  142.7051  160.4825 C.ar    1  UNL1        0.1417
     30 F         144.3791  143.6723  161.5524 F       1  UNL1       -0.2041
     31 C         145.2376  141.4190  156.9496 C.2     1  UNL1        0.2506
     32 O         145.3334  140.0830  156.2746 O.2     1  UNL1       -0.2698
     33 N         145.9830  142.5957  156.3931 N.am    1  UNL1       -0.2658
     34 H         145.9201  143.4726  156.8361 H       1  UNL1        0.1566
     35 C         146.8244  142.4363  155.1615 C.ar    1  UNL1        0.1343
     36 C         148.2863  142.1248  155.2871 C.ar    1  UNL1        0.0383
     37 C         149.1277  141.9654  154.0556 C.ar    1  UNL1        0.0757
     38 C         148.5071  142.1173  152.6985 C.ar    1  UNL1        0.0246
     39 C         147.0452  142.4287  152.5729 C.ar    1  UNL1        0.1003
     40 N         146.2038  142.5882  153.8044 N.ar    1  UNL1       -0.2290
     41 C         150.5896  141.6539  154.1812 C.3     1  UNL1        0.4187
     42 F         152.0515  141.3425  154.3068 F       1  UNL1       -0.1659
     43 F         150.5308  141.9689  155.6465 F       1  UNL1       -0.1659
     44 F         150.6484  141.3390  152.7158 F       1  UNL1       -0.1659
@<TRIPOS>BOND
     1    21    22    1
     2    22    23    1
     3    22    13    1
     4    13    14    2
     5    13    15   am
     6    15    16    1
     7    16    17    1
     8    17    18    1
     9    18    19    1
    10    19     1    1
    11     1     2   ar
    12     2     3   ar
    13     3    24    1
    14    24    25   ar
    15    25    26   ar
    16    26    27   ar
    17    27    31    1
    18    31    32    2
    19    31    33   am
    20    33    35    1
    21    35    36   ar
    22    36    37   ar
    23    37    41    1
    24    41    42    1
    25    41    43    1
    26    41    44    1
    27    37    38   ar
    28    38    39   ar
    29    39    40   ar
    30    27    28   ar
    31    28    29   ar
    32    29    30    1
    33     3     4   ar
    34     4     5   ar
    35     5     6    1
    36     5     7   ar
    37     7     8   ar
    38     8     9   ar
    39     9    10   ar
    40    19    20    1
    41    20    15    1
    42    10     1   ar
    43    29    24   ar
    44    10     4   ar
    45    40    35   ar
    46    33    34    1
    47     6    11    1
    48     6    12    1
@<TRIPOS>MOLECULE
*****
 44 48 0 0 0
SMALL
GASTEIGER

@<TRIPOS>ATOM
      1 C         142.9360  137.5065  156.6971 C.ar    1  UNL1        0.1255
      2 N         142.4477  137.6496  158.1081 N.ar    1  UNL1       -0.2304
      3 C         142.9548  138.9557  158.6438 C.ar    1  UNL1        0.1035
      4 C         143.7565  139.6198  157.5639 C.ar    1  UNL1        0.1142
      5 C         144.4956  140.9243  157.5207 C.ar    1  UNL1        0.1432
      6 N         144.5072  141.8200  158.7239 N.pl3   1  UNL1       -0.3414
      7 N         145.2231  141.3332  156.2743 N.ar    1  UNL1       -0.2265
      8 C         145.2115  140.4376  155.0711 C.ar    1  UNL1        0.1193
      9 C         144.4724  139.1330  155.1143 C.ar    1  UNL1        0.1020
     10 N         143.7449  138.7242  156.3607 N.ar    1  UNL1       -0.2884
     11 H         144.0298  141.5516  159.5420 H       1  UNL1        0.1438
     12 H         144.9923  142.6762  158.6955 H       1  UNL1        0.1438
     13 C         142.4017  132.3925  155.9482 C.2     1  UNL1        0.2252
     14 O         142.6798  132.1505  157.4021 O.2     1  UNL1       -0.2749
     15 N         142.3962  133.7919  155.4084 N.am    1  UNL1       -0.2791
     16 C         142.1180  134.0339  153.9544 C.3     1  UNL1        0.0934
     17 C         142.1125  135.4335  153.4147 C.3     1  UNL1        0.0220
     18 C         142.3852  136.5910  154.3289 C.3     1  UNL1        0.0110
     19 C         142.6634  136.3490  155.7828 C.3     1  UNL1        0.0771
     20 C         142.6688  134.9494  156.3226 C.3     1  UNL1        0.1008
     21 C         143.2637  130.5524  154.3291 C.3     1  UNL1        0.0096
     22 C         142.1290  131.2350  155.0339 C.3     1  UNL1        0.0767
     23 C         140.7217  130.7600  154.8245 C.3     1  UNL1        0.0096
     24 C         142.7043  139.5018  160.0182 C.ar    1  UNL1        0.0467
     25 C         143.7122  139.2836  161.1073 C.ar    1  UNL1        0.0039
     26 C         143.4616  139.8297  162.4817 C.ar    1  UNL1        0.0047
     27 C         142.2030  140.5942  162.7670 C.ar    1  UNL1        0.0559
     28 C         141.1949  140.8125  161.6779 C.ar    1  UNL1        0.0342
     29 C         141.4455  140.2663  160.3035 C.ar    1  UNL1        0.1417
     30 F         140.4375  140.4847  159.2144 F       1  UNL1       -0.2041
     31 C         141.9524  141.1403  164.1414 C.2     1  UNL1        0.2506
     32 O         141.4703  142.5504  164.3116 O.2     1  UNL1       -0.2698
     33 N         142.1840  140.2763  165.3455 N.am    1  UNL1       -0.2658
     34 H         142.5004  139.3507  165.2338 H       1  UNL1        0.1566
     35 C         141.9333  140.8225  166.7199 C.ar    1  UNL1        0.1343
     36 C         140.6816  140.4505  167.4580 C.ar    1  UNL1        0.0383
     37 C         140.4309  140.9967  168.8323 C.ar    1  UNL1        0.0757
     38 C         141.4320  141.9148  169.4685 C.ar    1  UNL1        0.0246
     39 C         142.6837  142.2868  168.7305 C.ar    1  UNL1        0.1003
     40 N         142.9344  141.7406  167.3561 N.ar    1  UNL1       -0.2290
     41 C         139.1791  140.6247  169.5704 C.3     1  UNL1        0.4187
     42 F         137.9274  140.2527  170.3085 F       1  UNL1       -0.1659
     43 F         139.5461  141.5749  170.6716 F       1  UNL1       -0.1659
     44 F         138.8122  139.6746  168.4692 F       1  UNL1       -0.1659
@<TRIPOS>BOND
     1    21    22    1
     2    22    23    1
     3    22    13    1
     4    13    14    2
     5    13    15   am
     6    15    16    1
     7    16    17    1
     8    17    18    1
     9    18    19    1
    10    19     1    1
    11     1     2   ar
    12     2     3   ar
    13     3    24    1
    14    24    25   ar
    15    25    26   ar
    16    26    27   ar
    17    27    31    1
    18    31    32    2
    19    31    33   am
    20    33    35    1
    21    35    36   ar
    22    36    37   ar
    23    37    41    1
    24    41    42    1
    25    41    43    1
    26    41    44    1
    27    37    38   ar
    28    38    39   ar
    29    39    40   ar
    30    27    28   ar
    31    28    29   ar
    32    29    30    1
    33     3     4   ar
    34     4     5   ar
    35     5     6    1
    36     5     7   ar
    37     7     8   ar
    38     8     9   ar
    39     9    10   ar
    40    19    20    1
    41    20    15    1
    42    10     1   ar
    43    29    24   ar
    44    10     4   ar
    45    40    35   ar
    46    33    34    1
    47     6    11    1
    48     6    12    1
@<TRIPOS>MOLECULE
*****
 44 48 0 0 0
SMALL
GASTEIGER

@<TRIPOS>ATOM
      1 C         142.6818  139.5467  158.9407 C.ar    1  UNL1        0.1255
      2 N         142.1517  138.1633  158.7055 N.ar    1  UNL1       -0.2304
      3 C         142.7087  137.6687  157.4035 C.ar    1  UNL1        0.1035
      4 C         143.5829  138.7464  156.8340 C.ar    1  UNL1        0.1142
      5 C         144.3919  138.8208  155.5731 C.ar    1  UNL1        0.1432
      6 N         144.4085  137.6602  154.6230 N.pl3   1  UNL1       -0.3414
      7 N         145.1843  140.0559  155.2622 N.ar    1  UNL1       -0.2265
      8 C         145.1677  141.2165  156.2123 C.ar    1  UNL1        0.1193
      9 C         144.3587  141.1421  157.4732 C.ar    1  UNL1        0.1020
     10 N         143.5663  139.9071  157.7840 N.ar    1  UNL1       -0.2884
     11 H         143.8884  136.8495  154.8270 H       1  UNL1        0.1438
     12 H         144.9395  137.7090  153.7954 H       1  UNL1        0.1438
     13 C         144.3045  142.2160  163.0929 C.2     1  UNL1        0.2252
     14 O         145.7188  141.8103  162.8011 O.2     1  UNL1       -0.2749
     15 N         143.1917  141.7516  162.2008 N.am    1  UNL1       -0.2791
     16 C         141.7774  142.1574  162.4926 C.3     1  UNL1        0.0934
     17 C         140.6646  141.6929  161.6005 C.3     1  UNL1        0.0220
     18 C         140.9661  140.8227  160.4165 C.3     1  UNL1        0.0110
     19 C         142.3803  140.4169  160.1246 C.3     1  UNL1        0.0771
     20 C         143.4932  140.8814  161.0168 C.3     1  UNL1        0.1008
     21 C         143.7858  142.4680  165.6263 C.3     1  UNL1        0.0096
     22 C         144.0030  143.0863  164.2769 C.3     1  UNL1        0.0767
     23 C         143.9187  144.5748  164.1116 C.3     1  UNL1        0.0096
     24 C         142.4387  136.3313  156.7803 C.ar    1  UNL1        0.0467
     25 C         143.2557  135.1387  157.1806 C.ar    1  UNL1        0.0039
     26 C         142.9858  133.8012  156.5574 C.ar    1  UNL1        0.0047
     27 C         141.8988  133.6563  155.5339 C.ar    1  UNL1        0.0559
     28 C         141.0818  134.8489  155.1336 C.ar    1  UNL1        0.0342
     29 C         141.3518  136.1864  155.7567 C.ar    1  UNL1        0.1417
     30 F         140.5348  137.3789  155.3564 F       1  UNL1       -0.2041
     31 C         141.6289  132.3188  154.9107 C.2     1  UNL1        0.2506
     32 O         140.9576  132.2371  153.5719 O.2     1  UNL1       -0.2698
     33 N         142.0304  131.0632  155.6264 N.am    1  UNL1       -0.2658
     34 H         142.4710  131.1169  156.5052 H       1  UNL1        0.1566
     35 C         141.7604  129.7258  155.0032 C.ar    1  UNL1        0.1343
     36 C         140.4162  129.0803  155.1657 C.ar    1  UNL1        0.0383
     37 C         140.1461  127.7429  154.5424 C.ar    1  UNL1        0.0757
     38 C         141.2204  127.0510  153.7568 C.ar    1  UNL1        0.0246
     39 C         142.5646  127.6965  153.5943 C.ar    1  UNL1        0.1003
     40 N         142.8346  129.0339  154.2175 N.ar    1  UNL1       -0.2290
     41 C         138.8019  127.0974  154.7049 C.3     1  UNL1        0.4187
     42 F         137.4577  126.4519  154.8674 F       1  UNL1       -0.1659
     43 F         138.9524  127.1593  156.1961 F       1  UNL1       -0.1659
     44 F         138.6514  127.0355  153.2138 F       1  UNL1       -0.1659
@<TRIPOS>BOND
     1    21    22    1
     2    22    23    1
     3    22    13    1
     4    13    14    2
     5    13    15   am
     6    15    16    1
     7    16    17    1
     8    17    18    1
     9    18    19    1
    10    19     1    1
    11     1     2   ar
    12     2     3   ar
    13     3    24    1
    14    24    25   ar
    15    25    26   ar
    16    26    27   ar
    17    27    31    1
    18    31    32    2
    19    31    33   am
    20    33    35    1
    21    35    36   ar
    22    36    37   ar
    23    37    41    1
    24    41    42    1
    25    41    43    1
    26    41    44    1
    27    37    38   ar
    28    38    39   ar
    29    39    40   ar
    30    27    28   ar
    31    28    29   ar
    32    29    30    1
    33     3     4   ar
    34     4     5   ar
    35     5     6    1
    36     5     7   ar
    37     7     8   ar
    38     8     9   ar
    39     9    10   ar
    40    19    20    1
    41    20    15    1
    42    10     1   ar
    43    29    24   ar
    44    10     4   ar
    45    40    35   ar
    46    33    34    1
    47     6    11    1
    48     6    12    1
@<TRIPOS>MOLECULE
*****
 44 48 0 0 0
SMALL
GASTEIGER

@<TRIPOS>ATOM
      1 C         142.0591  142.1180  162.5007 C.ar    1  UNL1        0.1255
      2 N         142.1216  140.8097  161.7696 N.ar    1  UNL1       -0.2304
      3 C         141.4692  140.9948  160.4317 C.ar    1  UNL1        0.1035
      4 C         141.0035  142.4175  160.3359 C.ar    1  UNL1        0.1142
      5 C         140.2946  143.1705  159.2494 C.ar    1  UNL1        0.1432
      6 N         139.9300  142.4763  157.9707 N.pl3   1  UNL1       -0.3414
      7 N         139.9502  144.6177  159.4417 N.ar    1  UNL1       -0.2265
      8 C         140.3148  145.3119  160.7205 C.ar    1  UNL1        0.1193
      9 C         141.0238  144.5589  161.8069 C.ar    1  UNL1        0.1020
     10 N         141.3681  143.1117  161.6146 N.ar    1  UNL1       -0.2884
     11 H         140.1560  141.5264  157.8445 H       1  UNL1        0.1438
     12 H         139.4647  142.9705  157.2576 H       1  UNL1        0.1438
     13 C         141.5561  141.8081  167.6631 C.2     1  UNL1        0.2252
     14 O         140.2353  141.1177  167.4930 O.2     1  UNL1       -0.2749
     15 N         142.3422  142.2308  166.4577 N.am    1  UNL1       -0.2791
     16 C         143.6630  142.9211  166.6278 C.3     1  UNL1        0.0934
     17 C         144.4491  143.3437  165.4222 C.3     1  UNL1        0.0220
     18 C         143.9145  143.0760  164.0466 C.3     1  UNL1        0.0110
     19 C         142.5938  142.3857  163.8764 C.3     1  UNL1        0.0771
     20 C         141.8076  141.9631  165.0820 C.3     1  UNL1        0.1008
     21 C         143.1193  141.1609  169.6349 C.3     1  UNL1        0.0096
     22 C         142.0907  142.0758  169.0388 C.3     1  UNL1        0.0767
     23 C         141.5969  143.2583  169.8184 C.3     1  UNL1        0.0096
     24 C         141.3103  139.9421  159.3751 C.ar    1  UNL1        0.0467
     25 C         139.9998  139.2299  159.2168 C.ar    1  UNL1        0.0039
     26 C         139.8409  138.1772  158.1602 C.ar    1  UNL1        0.0047
     27 C         140.9927  137.8366  157.2617 C.ar    1  UNL1        0.0559
     28 C         142.3034  138.5487  157.4199 C.ar    1  UNL1        0.0342
     29 C         142.4622  139.6014  158.4765 C.ar    1  UNL1        0.1417
     30 F         143.7729  140.3135  158.6347 F       1  UNL1       -0.2041
     31 C         140.8339  136.7838  156.2051 C.2     1  UNL1        0.2506
     32 O         139.6400  136.8066  155.2973 O.2     1  UNL1       -0.2698
     33 N         141.8689  135.7083  156.0563 N.am    1  UNL1       -0.2658
     34 H         142.6524  135.6934  156.6521 H       1  UNL1        0.1566
     35 C         141.7099  134.6556  154.9996 C.ar    1  UNL1        0.1343
     36 C         141.2840  133.2688  155.3807 C.ar    1  UNL1        0.0383
     37 C         141.1251  132.2160  154.3241 C.ar    1  UNL1        0.0757
     38 C         141.3920  132.5501  152.8864 C.ar    1  UNL1        0.0246
     39 C         141.8179  133.9370  152.5053 C.ar    1  UNL1        0.1003
     40 N         141.9769  134.9898  153.5619 N.ar    1  UNL1       -0.2290
     41 C         140.6992  130.8291  154.7053 C.3     1  UNL1        0.4187
     42 F         140.2733  129.4423  155.0864 F       1  UNL1       -0.1659
     43 F         139.6398  130.8628  153.6439 F       1  UNL1       -0.1659
     44 F         141.7586  130.7955  155.7667 F       1  UNL1       -0.1659
@<TRIPOS>BOND
     1    21    22    1
     2    22    23    1
     3    22    13    1
     4    13    14    2
     5    13    15   am
     6    15    16    1
     7    16    17    1
     8    17    18    1
     9    18    19    1
    10    19     1    1
    11     1     2   ar
    12     2     3   ar
    13     3    24    1
    14    24    25   ar
    15    25    26   ar
    16    26    27   ar
    17    27    31    1
    18    31    32    2
    19    31    33   am
    20    33    35    1
    21    35    36   ar
    22    36    37   ar
    23    37    41    1
    24    41    42    1
    25    41    43    1
    26    41    44    1
    27    37    38   ar
    28    38    39   ar
    29    39    40   ar
    30    27    28   ar
    31    28    29   ar
    32    29    30    1
    33     3     4   ar
    34     4     5   ar
    35     5     6    1
    36     5     7   ar
    37     7     8   ar
    38     8     9   ar
    39     9    10   ar
    40    19    20    1
    41    20    15    1
    42    10     1   ar
    43    29    24   ar
    44    10     4   ar
    45    40    35   ar
    46    33    34    1
    47     6    11    1
    48     6    12    1
@<TRIPOS>MOLECULE
*****
 44 48 0 0 0
SMALL
GASTEIGER

@<TRIPOS>ATOM
      1 C         141.6101  141.9355  163.6553 C.ar    1  UNL1        0.1255
      2 N         142.7624  141.6168  162.7494 N.ar    1  UNL1       -0.2304
      3 C         142.3115  141.8276  161.3343 C.ar    1  UNL1        0.1035
      4 C         140.8806  142.2765  161.3657 C.ar    1  UNL1        0.1142
      5 C         139.9164  142.6332  160.2735 C.ar    1  UNL1        0.1432
      6 N         140.3499  142.5664  158.8390 N.pl3   1  UNL1       -0.3414
      7 N         138.5187  143.0566  160.6156 N.ar    1  UNL1       -0.2265
      8 C         138.0852  143.1233  162.0501 C.ar    1  UNL1        0.1193
      9 C         139.0494  142.7666  163.1423 C.ar    1  UNL1        0.1020
     10 N         140.4471  142.3432  162.8002 N.ar    1  UNL1       -0.2884
     11 H         141.2673  142.2886  158.6144 H       1  UNL1        0.1438
     12 H         139.7171  142.8005  158.1221 H       1  UNL1        0.1438
     13 C         139.5967  140.1017  168.0806 C.2     1  UNL1        0.2252
     14 O         138.5719  139.3363  167.2971 O.2     1  UNL1       -0.2749
     15 N         140.6125  140.9429  167.3661 N.am    1  UNL1       -0.2791
     16 C         141.6373  141.7083  168.1495 C.3     1  UNL1        0.0934
     17 C         142.6531  142.5495  167.4349 C.3     1  UNL1        0.0220
     18 C         142.6440  142.6252  165.9368 C.3     1  UNL1        0.0110
     19 C         141.6192  141.8598  165.1533 C.3     1  UNL1        0.0771
     20 C         140.6034  141.0186  165.8680 C.3     1  UNL1        0.1008
     21 C         138.3658  140.3599  170.3540 C.3     1  UNL1        0.0096
     22 C         139.6058  140.0260  169.5787 C.3     1  UNL1        0.0767
     23 C         140.8548  139.6166  170.3014 C.3     1  UNL1        0.0096
     24 C         143.1452  141.6249  160.1039 C.ar    1  UNL1        0.0467
     25 C         144.0419  142.7239  159.6161 C.ar    1  UNL1        0.0039
     26 C         144.8756  142.5213  158.3857 C.ar    1  UNL1        0.0047
     27 C         144.8125  141.2196  157.6430 C.ar    1  UNL1        0.0559
     28 C         143.9158  140.1205  158.1308 C.ar    1  UNL1        0.0342
     29 C         143.0821  140.3232  159.3612 C.ar    1  UNL1        0.1417
     30 F         142.1854  139.2241  159.8489 F       1  UNL1       -0.2041
     31 C         145.6462  141.0170  156.4126 C.2     1  UNL1        0.2506
     32 O         145.6187  139.6991  155.6968 O.2     1  UNL1       -0.2698
     33 N         146.5072  142.1322  155.8980 N.am    1  UNL1       -0.2658
     34 H         146.5252  142.9972  156.3678 H       1  UNL1        0.1566
     35 C         147.3409  141.9295  154.6675 C.ar    1  UNL1        0.1343
     36 C         148.8304  141.7964  154.7844 C.ar    1  UNL1        0.0383
     37 C         149.6641  141.5937  153.5540 C.ar    1  UNL1        0.0757
     38 C         149.0082  141.5241  152.2068 C.ar    1  UNL1        0.0246
     39 C         147.5187  141.6572  152.0900 C.ar    1  UNL1        0.1003
     40 N         146.6850  141.8599  153.3204 N.ar    1  UNL1       -0.2290
     41 C         151.1536  141.4606  153.6709 C.3     1  UNL1        0.4187
     42 F         152.6431  141.3275  153.7877 F       1  UNL1       -0.1659
     43 F         151.2328  141.0761  152.2231 F       1  UNL1       -0.1659
     44 F         151.0744  141.8450  155.1186 F       1  UNL1       -0.1659
@<TRIPOS>BOND
     1    21    22    1
     2    22    23    1
     3    22    13    1
     4    13    14    2
     5    13    15   am
     6    15    16    1
     7    16    17    1
     8    17    18    1
     9    18    19    1
    10    19     1    1
    11     1     2   ar
    12     2     3   ar
    13     3    24    1
    14    24    25   ar
    15    25    26   ar
    16    26    27   ar
    17    27    31    1
    18    31    32    2
    19    31    33   am
    20    33    35    1
    21    35    36   ar
    22    36    37   ar
    23    37    41    1
    24    41    42    1
    25    41    43    1
    26    41    44    1
    27    37    38   ar
    28    38    39   ar
    29    39    40   ar
    30    27    28   ar
    31    28    29   ar
    32    29    30    1
    33     3     4   ar
    34     4     5   ar
    35     5     6    1
    36     5     7   ar
    37     7     8   ar
    38     8     9   ar
    39     9    10   ar
    40    19    20    1
    41    20    15    1
    42    10     1   ar
    43    29    24   ar
    44    10     4   ar
    45    40    35   ar
    46    33    34    1
    47     6    11    1
    48     6    12    1
@<TRIPOS>MOLECULE
*****
 44 48 0 0 0
SMALL
GASTEIGER

@<TRIPOS>ATOM
      1 C         140.8387  141.8161  163.2110 C.ar    1  UNL1        0.1255
      2 N         141.1453  140.5766  162.4238 N.ar    1  UNL1       -0.2304
      3 C         141.0140  140.9086  160.9669 C.ar    1  UNL1        0.1035
      4 C         140.6262  142.3532  160.8537 C.ar    1  UNL1        0.1142
      5 C         140.3577  143.2303  159.6669 C.ar    1  UNL1        0.1432
      6 N         140.4660  142.6695  158.2799 N.pl3   1  UNL1       -0.3414
      7 N         139.9809  144.6683  159.8671 N.ar    1  UNL1       -0.2265
      8 C         139.8725  145.2292  161.2541 C.ar    1  UNL1        0.1193
      9 C         140.1410  144.3520  162.4409 C.ar    1  UNL1        0.1020
     10 N         140.5178  142.9140  162.2407 N.ar    1  UNL1       -0.2884
     11 H         140.7133  141.7256  158.1486 H       1  UNL1        0.1438
     12 H         140.2898  143.2452  157.5010 H       1  UNL1        0.1438
     13 C         142.5110  140.1643  167.8451 C.2     1  UNL1        0.2252
     14 O         143.3229  139.0977  167.1720 O.2     1  UNL1       -0.2749
     15 N         141.6870  141.1105  167.0232 N.am    1  UNL1       -0.2791
     16 C         140.8751  142.1771  167.6964 C.3     1  UNL1        0.0934
     17 C         140.0511  143.1234  166.8744 C.3     1  UNL1        0.0220
     18 C         140.0390  143.0030  165.3793 C.3     1  UNL1        0.0110
     19 C         140.8508  141.9365  164.7061 C.3     1  UNL1        0.0771
     20 C         141.6749  140.9902  165.5281 C.3     1  UNL1        0.1008
     21 C         141.6330  139.4080  170.1705 C.3     1  UNL1        0.0096
     22 C         142.5231  140.2847  169.3402 C.3     1  UNL1        0.0767
     23 C         143.4254  141.2816  170.0051 C.3     1  UNL1        0.0096
     24 C         141.2321  139.9621  159.8238 C.ar    1  UNL1        0.0467
     25 C         142.6108  139.7629  159.2676 C.ar    1  UNL1        0.0039
     26 C         142.8289  138.8165  158.1245 C.ar    1  UNL1        0.0047
     27 C         141.6683  138.0692  157.5376 C.ar    1  UNL1        0.0559
     28 C         140.2895  138.2684  158.0937 C.ar    1  UNL1        0.0342
     29 C         140.0714  139.2148  159.2368 C.ar    1  UNL1        0.1417
     30 F         138.6926  139.4140  159.7930 F       1  UNL1       -0.2041
     31 C         141.8865  137.1228  156.3945 C.2     1  UNL1        0.2506
     32 O         143.1315  137.2241  155.5641 O.2     1  UNL1       -0.2698
     33 N         140.8596  136.0750  156.0818 N.am    1  UNL1       -0.2658
     34 H         140.0424  136.0086  156.6268 H       1  UNL1        0.1566
     35 C         141.0778  135.1286  154.9387 C.ar    1  UNL1        0.1343
     36 C         141.6308  133.7580  155.1949 C.ar    1  UNL1        0.0383
     37 C         141.8490  132.8116  154.0519 C.ar    1  UNL1        0.0757
     38 C         141.5143  133.2357  152.6526 C.ar    1  UNL1        0.0246
     39 C         140.9613  134.6063  152.3964 C.ar    1  UNL1        0.1003
     40 N         140.7430  135.5528  153.5394 N.ar    1  UNL1       -0.2290
     41 C         142.4020  131.4410  154.3081 C.3     1  UNL1        0.4187
     42 F         142.9550  130.0704  154.5644 F       1  UNL1       -0.1659
     43 F         143.5024  131.7006  153.3223 F       1  UNL1       -0.1659
     44 F         141.3017  131.1813  155.2939 F       1  UNL1       -0.1659
@<TRIPOS>BOND
     1    21    22    1
     2    22    23    1
     3    22    13    1
     4    13    14    2
     5    13    15   am
     6    15    16    1
     7    16    17    1
     8    17    18    1
     9    18    19    1
    10    19     1    1
    11     1     2   ar
    12     2     3   ar
    13     3    24    1
    14    24    25   ar
    15    25    26   ar
    16    26    27   ar
    17    27    31    1
    18    31    32    2
    19    31    33   am
    20    33    35    1
    21    35    36   ar
    22    36    37   ar
    23    37    41    1
    24    41    42    1
    25    41    43    1
    26    41    44    1
    27    37    38   ar
    28    38    39   ar
    29    39    40   ar
    30    27    28   ar
    31    28    29   ar
    32    29    30    1
    33     3     4   ar
    34     4     5   ar
    35     5     6    1
    36     5     7   ar
    37     7     8   ar
    38     8     9   ar
    39     9    10   ar
    40    19    20    1
    41    20    15    1
    42    10     1   ar
    43    29    24   ar
    44    10     4   ar
    45    40    35   ar
    46    33    34    1
    47     6    11    1
    48     6    12    1
@<TRIPOS>MOLECULE
*****
 44 48 0 0 0
SMALL
GASTEIGER

@<TRIPOS>ATOM
      1 C         142.4536  139.7131  158.9338 C.ar    1  UNL1        0.1255
      2 N         141.9242  138.3360  158.6634 N.ar    1  UNL1       -0.2304
      3 C         142.5738  137.8273  157.4107 C.ar    1  UNL1        0.1035
      4 C         143.5047  138.8901  156.9069 C.ar    1  UNL1        0.1142
      5 C         144.4104  138.9472  155.7126 C.ar    1  UNL1        0.1432
      6 N         144.4847  137.7816  154.7713 N.pl3   1  UNL1       -0.3414
      7 N         145.2418  140.1697  155.4596 N.ar    1  UNL1       -0.2265
      8 C         145.1675  141.3353  156.4009 C.ar    1  UNL1        0.1193
      9 C         144.2618  141.2782  157.5952 C.ar    1  UNL1        0.1020
     10 N         143.4304  140.0556  157.8482 N.ar    1  UNL1       -0.2884
     11 H         143.9390  136.9792  154.9373 H       1  UNL1        0.1438
     12 H         145.0792  137.8191  153.9874 H       1  UNL1        0.1438
     13 C         139.1540  143.0690  161.1362 C.2     1  UNL1        0.2252
     14 O         138.2654  142.9866  159.9306 O.2     1  UNL1       -0.2749
     15 N         140.4232  142.2713  161.1885 N.am    1  UNL1       -0.2791
     16 C         141.3118  142.3538  162.3941 C.3     1  UNL1        0.0934
     17 C         142.5810  141.5560  162.4463 C.3     1  UNL1        0.0220
     18 C         142.9616  140.6758  161.2928 C.3     1  UNL1        0.0110
     19 C         142.0730  140.5933  160.0872 C.3     1  UNL1        0.0771
     20 C         140.8037  141.3911  160.0350 C.3     1  UNL1        0.1008
     21 C         139.3254  145.3408  162.3853 C.3     1  UNL1        0.0096
     22 C         138.7734  143.9492  162.2896 C.3     1  UNL1        0.0767
     23 C         137.8409  143.4380  163.3475 C.3     1  UNL1        0.0096
     24 C         142.3345  136.4906  156.7737 C.ar    1  UNL1        0.0467
     25 C         143.1450  135.3018  157.1977 C.ar    1  UNL1        0.0039
     26 C         142.9058  133.9650  156.5607 C.ar    1  UNL1        0.0047
     27 C         141.8560  133.8170  155.4996 C.ar    1  UNL1        0.0559
     28 C         141.0454  135.0058  155.0755 C.ar    1  UNL1        0.0342
     29 C         141.2847  136.3425  155.7125 C.ar    1  UNL1        0.1417
     30 F         140.4741  137.5313  155.2884 F       1  UNL1       -0.2041
     31 C         141.6167  132.4802  154.8626 C.2     1  UNL1        0.2506
     32 O         141.0359  132.4006  153.4819 O.2     1  UNL1       -0.2698
     33 N         141.9582  131.2231  155.6062 N.am    1  UNL1       -0.2658
     34 H         142.3394  131.2754  156.5124 H       1  UNL1        0.1566
     35 C         141.7190  129.8864  154.9691 C.ar    1  UNL1        0.1343
     36 C         140.3999  129.1953  155.1489 C.ar    1  UNL1        0.0383
     37 C         140.1605  127.8585  154.5118 C.ar    1  UNL1        0.0757
     38 C         141.2403  127.2130  153.6950 C.ar    1  UNL1        0.0246
     39 C         142.5594  127.9041  153.5152 C.ar    1  UNL1        0.1003
     40 N         142.7987  129.2408  154.1523 N.ar    1  UNL1       -0.2290
     41 C         138.8414  127.1675  154.6916 C.3     1  UNL1        0.4187
     42 F         137.5223  126.4764  154.8714 F       1  UNL1       -0.1659
     43 F         138.6557  127.1346  153.2035 F       1  UNL1       -0.1659
     44 F         139.0270  127.2003  156.1797 F       1  UNL1       -0.1659
@<TRIPOS>BOND
     1    21    22    1
     2    22    23    1
     3    22    13    1
     4    13    14    2
     5    13    15   am
     6    15    16    1
     7    16    17    1
     8    17    18    1
     9    18    19    1
    10    19     1    1
    11     1     2   ar
    12     2     3   ar
    13     3    24    1
    14    24    25   ar
    15    25    26   ar
    16    26    27   ar
    17    27    31    1
    18    31    32    2
    19    31    33   am
    20    33    35    1
    21    35    36   ar
    22    36    37   ar
    23    37    41    1
    24    41    42    1
    25    41    43    1
    26    41    44    1
    27    37    38   ar
    28    38    39   ar
    29    39    40   ar
    30    27    28   ar
    31    28    29   ar
    32    29    30    1
    33     3     4   ar
    34     4     5   ar
    35     5     6    1
    36     5     7   ar
    37     7     8   ar
    38     8     9   ar
    39     9    10   ar
    40    19    20    1
    41    20    15    1
    42    10     1   ar
    43    29    24   ar
    44    10     4   ar
    45    40    35   ar
    46    33    34    1
    47     6    11    1
    48     6    12    1
@<TRIPOS>MOLECULE
*****
 44 48 0 0 0
SMALL
GASTEIGER

@<TRIPOS>ATOM
      1 C         141.7858  141.4004  163.7905 C.ar    1  UNL1        0.1255
      2 N         141.2880  140.3031  162.8972 N.ar    1  UNL1       -0.2304
      3 C         141.9799  140.4338  161.5728 C.ar    1  UNL1        0.1035
      4 C         142.9054  141.6119  161.6475 C.ar    1  UNL1        0.1142
      5 C         143.8419  142.2178  160.6446 C.ar    1  UNL1        0.1432
      6 N         143.9618  141.6203  159.2739 N.pl3   1  UNL1       -0.3414
      7 N         144.6584  143.4211  161.0123 N.ar    1  UNL1       -0.2265
      8 C         144.5384  144.0185  162.3830 C.ar    1  UNL1        0.1193
      9 C         143.6019  143.4126  163.3859 C.ar    1  UNL1        0.1020
     10 N         142.7855  142.2093  163.0182 N.ar    1  UNL1       -0.2884
     11 H         143.4259  140.8305  159.0326 H       1  UNL1        0.1438
     12 H         144.5765  142.0180  158.6157 H       1  UNL1        0.1438
     13 C         141.9424  140.1184  168.8236 C.2     1  UNL1        0.2252
     14 O         142.8743  138.9867  168.5063 O.2     1  UNL1       -0.2749
     15 N         141.4373  141.0048  167.7240 N.am    1  UNL1       -0.2791
     16 C         140.5054  142.1366  168.0412 C.3     1  UNL1        0.0934
     17 C         140.0003  143.0229  166.9416 C.3     1  UNL1        0.0220
     18 C         140.4271  142.7775  165.5247 C.3     1  UNL1        0.0110
     19 C         141.3590  141.6458  165.2074 C.3     1  UNL1        0.0771
     20 C         141.8641  140.7594  166.3071 C.3     1  UNL1        0.1008
     21 C         140.2252  139.7891  170.7453 C.3     1  UNL1        0.0096
     22 C         141.5156  140.3639  170.2405 C.3     1  UNL1        0.0767
     23 C         142.3790  141.1840  171.1525 C.3     1  UNL1        0.0096
     24 C         141.7813  139.5428  160.3825 C.ar    1  UNL1        0.0467
     25 C         140.5361  139.6632  159.5549 C.ar    1  UNL1        0.0039
     26 C         140.3375  138.7722  158.3647 C.ar    1  UNL1        0.0047
     27 C         141.3841  137.7608  158.0020 C.ar    1  UNL1        0.0559
     28 C         142.6293  137.6403  158.8295 C.ar    1  UNL1        0.0342
     29 C         142.8280  138.5313  160.0198 C.ar    1  UNL1        0.1417
     30 F         144.0732  138.4108  160.8474 F       1  UNL1       -0.2041
     31 C         141.1854  136.8698  156.8117 C.2     1  UNL1        0.2506
     32 O         139.9657  137.0265  155.9529 O.2     1  UNL1       -0.2698
     33 N         142.2065  135.8221  156.4804 N.am    1  UNL1       -0.2658
     34 H         143.0071  135.7192  157.0441 H       1  UNL1        0.1566
     35 C         142.0078  134.9312  155.2901 C.ar    1  UNL1        0.1343
     36 C         141.7941  133.4590  155.4826 C.ar    1  UNL1        0.0383
     37 C         141.5954  132.5680  154.2924 C.ar    1  UNL1        0.0757
     38 C         141.6103  133.1492  152.9097 C.ar    1  UNL1        0.0246
     39 C         141.8240  134.6214  152.7172 C.ar    1  UNL1        0.1003
     40 N         142.0227  135.5124  153.9074 N.ar    1  UNL1       -0.2290
     41 C         141.3817  131.0958  154.4849 C.3     1  UNL1        0.4187
     42 F         141.1680  129.6237  154.6774 F       1  UNL1       -0.1659
     43 F         142.8393  130.8508  154.2290 F       1  UNL1       -0.1659
     44 F         139.9242  131.3409  154.7408 F       1  UNL1       -0.1659
@<TRIPOS>BOND
     1    21    22    1
     2    22    23    1
     3    22    13    1
     4    13    14    2
     5    13    15   am
     6    15    16    1
     7    16    17    1
     8    17    18    1
     9    18    19    1
    10    19     1    1
    11     1     2   ar
    12     2     3   ar
    13     3    24    1
    14    24    25   ar
    15    25    26   ar
    16    26    27   ar
    17    27    31    1
    18    31    32    2
    19    31    33   am
    20    33    35    1
    21    35    36   ar
    22    36    37   ar
    23    37    41    1
    24    41    42    1
    25    41    43    1
    26    41    44    1
    27    37    38   ar
    28    38    39   ar
    29    39    40   ar
    30    27    28   ar
    31    28    29   ar
    32    29    30    1
    33     3     4   ar
    34     4     5   ar
    35     5     6    1
    36     5     7   ar
    37     7     8   ar
    38     8     9   ar
    39     9    10   ar
    40    19    20    1
    41    20    15    1
    42    10     1   ar
    43    29    24   ar
    44    10     4   ar
    45    40    35   ar
    46    33    34    1
    47     6    11    1
    48     6    12    1
