@<TRIPOS>MOLECULE
*****
 59 64 0 0 0
SMALL
GASTEIGER

@<TRIPOS>ATOM
      1 C         140.0378  143.1965  157.5950 C.3     1  UNL1        0.2066
      2 O         139.9293  144.2548  158.6525 O.3     1  UNL1       -0.4483
      3 C         140.1001  144.8033  160.0382 C.2     1  UNL1        0.3235
      4 O         139.5486  146.1930  159.9173 O.2     1  UNL1       -0.2496
      5 C         140.5162  144.7333  161.4775 C.3     1  UNL1        0.1563
      6 C         140.1500  146.0918  161.9973 C.3     1  UNL1        0.0196
      7 C         141.0954  144.0587  162.6856 C.2     1  UNL1        0.1629
      8 O         140.9869  145.1170  163.7430 O.2     1  UNL1       -0.2954
      9 C         141.7228  142.9131  163.4231 C.3     1  UNL1        0.0877
     10 C         141.8936  143.4616  164.8088 C.3     1  UNL1        0.0104
     11 C         142.2743  141.5234  163.5439 C.3     1  UNL1        0.1490
     12 C         142.6406  140.1648  163.0242 C.3     1  UNL1        0.1141
     13 C         142.9819  140.3057  164.4780 C.3     1  UNL1        0.0318
     14 O         143.2563  138.9092  163.5667 O.3     1  UNL1       -0.3843
     15 C         142.7491  139.1065  161.9667 C.3     1  UNL1        0.0367
     16 C         142.5784  138.5580  160.5812 C.3     1  UNL1        0.0601
     17 C         143.1298  137.1683  160.7020 C.3     1  UNL1        0.0078
     18 C         142.1622  138.6280  159.1418 C.2     1  UNL1        0.1516
     19 O         142.5284  137.2694  158.6219 O.2     1  UNL1       -0.2960
     20 C         141.5831  139.3025  157.9336 C.3     1  UNL1        0.0794
     21 C         141.6916  138.2442  156.8762 C.3     1  UNL1        0.0096
     22 C         140.9556  140.4482  157.1961 C.3     1  UNL1        0.1254
     23 N         140.8397  139.7853  155.8555 N.am    1  UNL1       -0.2426
     24 C         140.2167  140.7654  154.9061 C.2     1  UNL1        0.4049
     25 O         139.9157  140.5199  153.4573 O.2     1  UNL1       -0.2262
     26 O         139.9474  142.0339  155.6600 O.3     1  UNL1       -0.4365
     27 C         140.4041  141.8379  157.0753 C.3     1  UNL1        0.1908
     28 C         139.7787  143.0193  156.3947 C.3     1  UNL1        0.0493
     29 H         143.4652  139.0313  164.5060 H       1  UNL1        0.2103
     30 C         141.2712  138.3878  155.5227 C.3     1  UNL1        0.1105
     31 C         142.5108  137.7690  154.9480 C.3     1  UNL1        0.0939
     32 N         141.8814  136.4114  155.0521 N.3     1  UNL1       -0.2660
     33 C         140.6418  137.0302  155.6269 C.3     1  UNL1        0.0939
     34 C         142.3130  135.0139  154.7193 C.3     1  UNL1        0.1008
     35 C         143.0560  134.1965  155.7341 C.ar    1  UNL1        0.0146
     36 C         143.3265  134.7595  157.0980 C.ar    1  UNL1        0.0193
     37 C         144.0694  133.9422  158.1128 C.ar    1  UNL1        0.0987
     38 N         144.5420  132.5620  157.7638 N.ar    1  UNL1       -0.2423
     39 C         144.2715  131.9991  156.4000 C.ar    1  UNL1        0.0987
     40 C         144.7440  130.6188  156.0511 C.ar    1  UNL1        0.0222
     41 C         144.4735  130.0560  154.6873 C.ar    1  UNL1        0.0222
     42 C         143.7305  130.8733  153.6724 C.ar    1  UNL1        0.0989
     43 N         143.2580  132.2535  154.0213 N.ar    1  UNL1       -0.2426
     44 C         143.5285  132.8164  155.3852 C.ar    1  UNL1        0.0962
     45 C         139.8664  145.2729  156.0431 C.3     1  UNL1        0.0040
     46 C         139.4587  143.8710  156.3870 C.3     1  UNL1        0.0474
     47 O         142.6905  141.4534  164.9834 O.3     1  UNL1       -0.3283
     48 C         141.7185  140.9796  166.0229 C.3     1  UNL1        0.2643
     49 O         140.4945  140.2158  165.6125 O.3     1  UNL1       -0.3311
     50 C         139.5225  139.7419  166.6521 C.3     1  UNL1        0.1194
     51 C         138.2985  138.9781  166.2418 C.3     1  UNL1        0.0322
     52 C         139.7745  140.0319  168.1021 C.3     1  UNL1        0.0482
     53 C         140.9985  140.7957  168.5125 C.3     1  UNL1        0.0921
     54 C         141.9705  141.2695  167.4729 C.3     1  UNL1        0.1815
     55 O         143.1945  142.0334  167.8833 O.3     1  UNL1       -0.3783
     56 H         143.2049  142.1333  168.8481 H       1  UNL1        0.2106
     57 N         141.2505  141.0857  169.9625 N.3     1  UNL1       -0.2692
     58 C         140.4690  142.1596  170.6594 C.3     1  UNL1        0.0897
     59 C         142.2840  140.3016  170.7155 C.3     1  UNL1        0.0897
@<TRIPOS>BOND
     1    45    46    1
     2     1    46    1
     3     1     2    1
     4     2     3    1
     5     3     4    2
     6     3     5    1
     7     5     6    1
     8     5     7    1
     9     7     8    2
    10     7     9    1
    11     9    10    1
    12     9    11    1
    13    11    47    1
    14    48    47    1
    15    48    49    1
    16    49    50    1
    17    50    51    1
    18    50    52    1
    19    52    53    1
    20    53    57    1
    21    57    58    1
    22    57    59    1
    23    53    54    1
    24    54    55    1
    25    11    12    1
    26    12    13    1
    27    12    14    1
    28    12    15    1
    29    15    16    1
    30    16    17    1
    31    16    18    1
    32    18    19    2
    33    18    20    1
    34    20    21    1
    35    20    22    1
    36    22    23    1
    37    23    30    1
    38    30    31    1
    39    31    32    1
    40    32    34    1
    41    34    35    1
    42    35    36   ar
    43    36    37   ar
    44    37    38   ar
    45    38    39   ar
    46    39    40   ar
    47    40    41   ar
    48    41    42   ar
    49    42    43   ar
    50    43    44   ar
    51    32    33    1
    52    23    24   am
    53    24    25    2
    54    24    26    1
    55    26    27    1
    56    27    28    1
    57    27     1    1
    58    54    48    1
    59    27    22    1
    60    33    30    1
    61    44    35   ar
    62    44    39   ar
    63    55    56    1
    64    14    29    1
@<TRIPOS>MOLECULE
*****
 59 64 0 0 0
SMALL
GASTEIGER

@<TRIPOS>ATOM
      1 C         141.8499  136.7842  156.7786 C.3     1  UNL1        0.2066
      2 O         141.2604  136.3729  155.4620 O.3     1  UNL1       -0.4483
      3 C         140.2994  136.4894  154.3161 C.2     1  UNL1        0.3235
      4 O         140.7063  135.3553  153.4227 O.2     1  UNL1       -0.2496
      5 C         139.1575  137.1106  153.5679 C.3     1  UNL1        0.1563
      6 C         139.0561  136.2530  152.3414 C.3     1  UNL1        0.0196
      7 C         138.0606  138.1135  153.3654 C.2     1  UNL1        0.1629
      8 O         137.4711  137.7022  152.0489 O.2     1  UNL1       -0.2954
      9 C         137.2260  139.2995  153.7489 C.3     1  UNL1        0.0877
     10 C         136.2651  139.4159  152.6029 C.3     1  UNL1        0.0104
     11 C         136.8191  140.4336  154.6423 C.3     1  UNL1        0.1490
     12 C         136.9204  141.2913  155.8687 C.3     1  UNL1        0.1141
     13 C         135.8146  141.7532  154.9667 C.3     1  UNL1        0.0318
     14 O         136.2138  142.4864  156.4361 O.3     1  UNL1       -0.3843
     15 C         137.5100  141.7025  157.1853 C.3     1  UNL1        0.0367
     16 C         138.4708  141.5861  158.3312 C.3     1  UNL1        0.0601
     17 C         138.0639  142.7202  159.2246 C.3     1  UNL1        0.0078
     18 C         139.6128  140.9648  159.0794 C.2     1  UNL1        0.1516
     19 O         139.7142  141.8224  160.3059 O.2     1  UNL1       -0.2960
     20 C         140.7098  139.9620  159.2820 C.3     1  UNL1        0.0794
     21 C         141.2992  140.3733  160.5985 C.3     1  UNL1        0.0096
     22 C         141.5443  138.7760  158.8985 C.3     1  UNL1        0.1254
     23 N         142.4443  138.7666  160.0984 N.am    1  UNL1       -0.2426
     24 C         143.4074  137.6267  159.9467 C.2     1  UNL1        0.4049
     25 O         144.4859  137.2484  160.9181 O.2     1  UNL1       -0.2262
     26 O         143.1027  136.9316  158.6529 O.3     1  UNL1       -0.4365
     27 C         141.9512  137.6419  158.0050 C.3     1  UNL1        0.1908
     28 C         142.7493  136.4503  157.5653 C.3     1  UNL1        0.0493
     29 H         135.5062  142.7607  155.8319 H       1  UNL1        0.2103
     30 C         142.3906  139.7283  161.2483 C.3     1  UNL1        0.1105
     31 C         143.1363  140.9741  161.6248 C.3     1  UNL1        0.0939
     32 N         142.3146  141.0884  162.8745 N.3     1  UNL1       -0.2660
     33 C         141.5688  139.8425  162.4980 C.3     1  UNL1        0.0939
     34 C         142.2609  142.0502  164.0244 C.3     1  UNL1        0.1008
     35 C         141.1205  143.0176  164.1404 C.ar    1  UNL1        0.0146
     36 C         140.2853  143.0465  165.3862 C.ar    1  UNL1        0.0193
     37 C         139.1449  144.0139  165.5022 C.ar    1  UNL1        0.0987
     38 N         138.8397  144.9525  164.3726 N.ar    1  UNL1       -0.2423
     39 C         139.6749  144.9236  163.1270 C.ar    1  UNL1        0.0987
     40 C         139.3696  145.8623  161.9975 C.ar    1  UNL1        0.0222
     41 C         140.2048  145.8334  160.7518 C.ar    1  UNL1        0.0222
     42 C         141.3453  144.8658  160.6357 C.ar    1  UNL1        0.0989
     43 N         141.6505  143.9273  161.7652 N.ar    1  UNL1       -0.2426
     44 C         140.8153  143.9562  163.0110 C.ar    1  UNL1        0.0962
     45 C         143.7778  135.3332  155.8155 C.3     1  UNL1        0.0040
     46 C         142.9468  135.7813  156.9810 C.3     1  UNL1        0.0474
     47 O         135.6771  141.0548  153.8940 O.3     1  UNL1       -0.3283
     48 C         134.2954  141.0279  154.4770 C.3     1  UNL1        0.2643
     49 O         134.0446  140.3285  155.7801 O.3     1  UNL1       -0.3311
     50 C         132.6628  140.3015  156.3631 C.3     1  UNL1        0.1194
     51 C         132.4120  139.6022  157.6662 C.3     1  UNL1        0.0322
     52 C         131.5317  140.9740  155.6431 C.3     1  UNL1        0.0482
     53 C         131.7824  141.6734  154.3400 C.3     1  UNL1        0.0921
     54 C         133.1643  141.7003  153.7570 C.3     1  UNL1        0.1815
     55 O         133.4150  142.3997  152.4539 O.3     1  UNL1       -0.3783
     56 H         132.5845  142.7777  152.1248 H       1  UNL1        0.2106
     57 N         130.6513  142.3459  153.6199 N.3     1  UNL1       -0.2692
     58 C         129.9946  143.5545  154.2180 C.3     1  UNL1        0.0897
     59 C         130.1771  141.8096  152.3018 C.3     1  UNL1        0.0897
@<TRIPOS>BOND
     1    45    46    1
     2     1    46    1
     3     1     2    1
     4     2     3    1
     5     3     4    2
     6     3     5    1
     7     5     6    1
     8     5     7    1
     9     7     8    2
    10     7     9    1
    11     9    10    1
    12     9    11    1
    13    11    47    1
    14    48    47    1
    15    48    49    1
    16    49    50    1
    17    50    51    1
    18    50    52    1
    19    52    53    1
    20    53    57    1
    21    57    58    1
    22    57    59    1
    23    53    54    1
    24    54    55    1
    25    11    12    1
    26    12    13    1
    27    12    14    1
    28    12    15    1
    29    15    16    1
    30    16    17    1
    31    16    18    1
    32    18    19    2
    33    18    20    1
    34    20    21    1
    35    20    22    1
    36    22    23    1
    37    23    30    1
    38    30    31    1
    39    31    32    1
    40    32    34    1
    41    34    35    1
    42    35    36   ar
    43    36    37   ar
    44    37    38   ar
    45    38    39   ar
    46    39    40   ar
    47    40    41   ar
    48    41    42   ar
    49    42    43   ar
    50    43    44   ar
    51    32    33    1
    52    23    24   am
    53    24    25    2
    54    24    26    1
    55    26    27    1
    56    27    28    1
    57    27     1    1
    58    54    48    1
    59    27    22    1
    60    33    30    1
    61    44    35   ar
    62    44    39   ar
    63    55    56    1
    64    14    29    1
@<TRIPOS>MOLECULE
*****
 59 64 0 0 0
SMALL
GASTEIGER

@<TRIPOS>ATOM
      1 C         140.7743  144.6752  157.7071 C.3     1  UNL1        0.2066
      2 O         141.2069  144.6199  156.2719 O.3     1  UNL1       -0.4483
      3 C         141.7684  143.9469  155.0546 C.2     1  UNL1        0.3235
      4 O         141.7284  145.0353  154.0232 O.2     1  UNL1       -0.2496
      5 C         142.3476  142.7896  154.2964 C.3     1  UNL1        0.1563
      6 C         142.5655  143.3629  152.9275 C.3     1  UNL1        0.0196
      7 C         142.8300  141.3771  154.1472 C.2     1  UNL1        0.1629
      8 O         143.2625  141.3218  152.7120 O.2     1  UNL1       -0.2954
      9 C         143.1198  139.9892  154.6369 C.3     1  UNL1        0.0877
     10 C         143.6813  139.3163  153.4196 C.3     1  UNL1        0.0104
     11 C         143.1598  138.9008  155.6683 C.3     1  UNL1        0.1490
     12 C         142.9420  138.3275  157.0372 C.3     1  UNL1        0.1141
     13 C         143.5284  137.3102  156.1039 C.3     1  UNL1        0.0318
     14 O         143.1526  137.0108  157.7242 O.3     1  UNL1       -0.3843
     15 C         142.5094  138.3828  158.4725 C.3     1  UNL1        0.0367
     16 C         141.9480  139.0557  159.6897 C.3     1  UNL1        0.0601
     17 C         141.9879  137.9673  160.7212 C.3     1  UNL1        0.0078
     18 C         141.3687  140.2131  160.4480 C.2     1  UNL1        0.1516
     19 O         141.1508  139.6398  161.8169 O.2     1  UNL1       -0.2960
     20 C         140.8863  141.6256  160.5972 C.3     1  UNL1        0.0794
     21 C         140.4538  141.6808  162.0323 C.3     1  UNL1        0.0096
     22 C         140.5965  143.0135  160.1075 C.3     1  UNL1        0.1254
     23 N         140.0524  143.5699  161.3898 N.am    1  UNL1       -0.2426
     24 C         139.6761  145.0022  161.1509 C.2     1  UNL1        0.4049
     25 O         139.0911  145.9408  162.1641 O.2     1  UNL1       -0.2262
     26 O         139.9877  145.3309  159.7210 O.3     1  UNL1       -0.4365
     27 C         140.5565  144.1018  159.0760 C.3     1  UNL1        0.1908
     28 C         140.2898  145.4716  158.5259 C.3     1  UNL1        0.0493
     29 H         143.5317  136.3757  157.0966 H       1  UNL1        0.2103
     30 C         139.9096  142.8248  162.6838 C.3     1  UNL1        0.1105
     31 C         138.9097  141.8587  163.2467 C.3     1  UNL1        0.0939
     32 N         139.7077  141.7711  164.5138 N.3     1  UNL1       -0.2660
     33 C         140.7075  142.7373  163.9509 C.3     1  UNL1        0.0939
     34 C         139.5648  141.0260  165.8078 C.3     1  UNL1        0.1008
     35 C         140.7446  140.3096  166.3951 C.ar    1  UNL1        0.0146
     36 C         141.6268  139.4725  165.5170 C.ar    1  UNL1        0.0193
     37 C         142.8066  138.7561  166.1042 C.ar    1  UNL1        0.0987
     38 N         143.1042  138.8768  167.5694 N.ar    1  UNL1       -0.2423
     39 C         142.2219  139.7139  168.4474 C.ar    1  UNL1        0.0987
     40 C         142.5196  139.8345  169.9127 C.ar    1  UNL1        0.0222
     41 C         141.6373  140.6716  170.7907 C.ar    1  UNL1        0.0222
     42 C         140.4575  141.3881  170.2034 C.ar    1  UNL1        0.0989
     43 N         140.1599  141.2674  168.7383 N.ar    1  UNL1       -0.2426
     44 C         141.0421  140.4303  167.8602 C.ar    1  UNL1        0.0962
     45 C         139.5078  146.7328  156.7523 C.3     1  UNL1        0.0040
     46 C         140.2920  146.0877  157.8562 C.3     1  UNL1        0.0474
     47 O         143.7391  137.7435  154.9101 O.3     1  UNL1       -0.3283
     48 C         142.8543  136.6125  154.4768 C.3     1  UNL1        0.2643
     49 O         141.6263  136.8908  153.6615 O.3     1  UNL1       -0.3311
     50 C         140.7414  135.7597  153.2282 C.3     1  UNL1        0.1194
     51 C         139.5135  136.0380  152.4129 C.3     1  UNL1        0.0322
     52 C         141.0845  134.3503  153.6101 C.3     1  UNL1        0.0482
     53 C         142.3125  134.0719  154.4254 C.3     1  UNL1        0.0921
     54 C         143.1974  135.2031  154.8587 C.3     1  UNL1        0.1815
     55 O         144.4254  134.9247  155.6740 O.3     1  UNL1       -0.3783
     56 H         144.4994  133.9705  155.8316 H       1  UNL1        0.2106
     57 N         142.6556  132.6625  154.8073 N.3     1  UNL1       -0.2692
     58 C         143.1976  131.7170  153.7768 C.3     1  UNL1        0.0897
     59 C         142.4567  132.1988  156.2199 C.3     1  UNL1        0.0897
@<TRIPOS>BOND
     1    45    46    1
     2     1    46    1
     3     1     2    1
     4     2     3    1
     5     3     4    2
     6     3     5    1
     7     5     6    1
     8     5     7    1
     9     7     8    2
    10     7     9    1
    11     9    10    1
    12     9    11    1
    13    11    47    1
    14    48    47    1
    15    48    49    1
    16    49    50    1
    17    50    51    1
    18    50    52    1
    19    52    53    1
    20    53    57    1
    21    57    58    1
    22    57    59    1
    23    53    54    1
    24    54    55    1
    25    11    12    1
    26    12    13    1
    27    12    14    1
    28    12    15    1
    29    15    16    1
    30    16    17    1
    31    16    18    1
    32    18    19    2
    33    18    20    1
    34    20    21    1
    35    20    22    1
    36    22    23    1
    37    23    30    1
    38    30    31    1
    39    31    32    1
    40    32    34    1
    41    34    35    1
    42    35    36   ar
    43    36    37   ar
    44    37    38   ar
    45    38    39   ar
    46    39    40   ar
    47    40    41   ar
    48    41    42   ar
    49    42    43   ar
    50    43    44   ar
    51    32    33    1
    52    23    24   am
    53    24    25    2
    54    24    26    1
    55    26    27    1
    56    27    28    1
    57    27     1    1
    58    54    48    1
    59    27    22    1
    60    33    30    1
    61    44    35   ar
    62    44    39   ar
    63    55    56    1
    64    14    29    1
@<TRIPOS>MOLECULE
*****
 59 64 0 0 0
SMALL
GASTEIGER

@<TRIPOS>ATOM
      1 C         141.2800  144.8060  157.2523 C.3     1  UNL1        0.2066
      2 O         141.8061  144.6086  155.8616 O.3     1  UNL1       -0.4483
      3 C         142.3967  143.8045  154.7415 C.2     1  UNL1        0.3235
      4 O         142.5147  144.8101  153.6347 O.2     1  UNL1       -0.2496
      5 C         142.9347  142.5529  154.1140 C.3     1  UNL1        0.1563
      6 C         143.2922  143.0014  152.7280 C.3     1  UNL1        0.0196
      7 C         143.3137  141.1016  154.1032 C.2     1  UNL1        0.1629
      8 O         143.8398  140.9043  152.7125 O.2     1  UNL1       -0.2954
      9 C         143.4586  139.7381  154.7115 C.3     1  UNL1        0.0877
     10 C         144.0491  138.9340  153.5914 C.3     1  UNL1        0.0104
     11 C         143.3406  138.7325  155.8182 C.3     1  UNL1        0.1490
     12 C         142.9831  138.2839  157.2043 C.3     1  UNL1        0.1141
     13 C         143.5515  137.1574  156.3931 C.3     1  UNL1        0.0318
     14 O         143.0409  137.0122  157.9976 O.3     1  UNL1       -0.3843
     15 C         142.4570  138.4813  158.5950 C.3     1  UNL1        0.0367
     16 C         141.8664  139.2853  159.7151 C.3     1  UNL1        0.0601
     17 C         141.7484  138.2797  160.8218 C.3     1  UNL1        0.0078
     18 C         141.3284  140.5370  160.3426 C.2     1  UNL1        0.1516
     19 O         140.9709  140.0886  161.7286 O.2     1  UNL1       -0.2960
     20 C         140.9494  141.9883  160.3534 C.3     1  UNL1        0.0794
     21 C         140.4233  142.1857  161.7441 C.3     1  UNL1        0.0096
     22 C         140.8045  143.3518  159.7451 C.3     1  UNL1        0.1254
     23 N         140.2176  144.0438  160.9395 N.am    1  UNL1       -0.2426
     24 C         139.9728  145.4771  160.5710 C.2     1  UNL1        0.4049
     25 O         139.3940  146.5314  161.4673 O.2     1  UNL1       -0.2262
     26 O         140.4085  145.6709  159.1488 O.3     1  UNL1       -0.4365
     27 C         140.9225  144.3574  158.6384 C.3     1  UNL1        0.1908
     28 C         140.8035  145.6965  157.9730 C.3     1  UNL1        0.0493
     29 H         143.4119  136.3046  157.4476 H       1  UNL1        0.2103
     30 C         139.9265  143.4132  162.2690 C.3     1  UNL1        0.1105
     31 C         140.6615  143.2969  163.5714 C.3     1  UNL1        0.0939
     32 N         139.5148  142.5214  164.1492 N.3     1  UNL1       -0.2660
     33 C         138.7799  142.6377  162.8468 C.3     1  UNL1        0.0939
     34 C         139.2238  141.8908  165.4788 C.3     1  UNL1        0.1008
     35 C         140.3442  141.6033  166.4339 C.ar    1  UNL1        0.0146
     36 C         140.5874  142.5142  167.6006 C.ar    1  UNL1        0.0193
     37 C         141.7077  142.2267  168.5557 C.ar    1  UNL1        0.0987
     38 N         142.5847  141.0283  168.3441 N.ar    1  UNL1       -0.2423
     39 C         142.3414  140.1175  167.1774 C.ar    1  UNL1        0.0987
     40 C         143.2185  138.9191  166.9659 C.ar    1  UNL1        0.0222
     41 C         142.9752  138.0083  165.7992 C.ar    1  UNL1        0.0222
     42 C         141.8548  138.2958  164.8441 C.ar    1  UNL1        0.0989
     43 N         140.9779  139.4941  165.0556 N.ar    1  UNL1       -0.2426
     44 C         141.2211  140.4050  166.2223 C.ar    1  UNL1        0.0962
     45 C         139.8079  146.7536  156.3639 C.3     1  UNL1        0.0040
     46 C         140.9010  146.2573  157.2630 C.3     1  UNL1        0.0474
     47 O         143.8786  137.4808  155.1907 O.3     1  UNL1       -0.3283
     48 C         142.9357  136.4205  154.7044 C.3     1  UNL1        0.2643
     49 O         141.6948  136.8066  153.9553 O.3     1  UNL1       -0.3311
     50 C         140.7518  135.7462  153.4690 C.3     1  UNL1        0.1194
     51 C         139.5109  136.1323  152.7199 C.3     1  UNL1        0.0322
     52 C         141.0497  134.2998  153.7317 C.3     1  UNL1        0.0482
     53 C         142.2907  133.9136  154.4808 C.3     1  UNL1        0.0921
     54 C         143.2336  134.9741  154.9671 C.3     1  UNL1        0.1815
     55 O         144.4746  134.5879  155.7162 O.3     1  UNL1       -0.3783
     56 H         144.5150  133.6223  155.7989 H       1  UNL1        0.2106
     57 N         142.5886  132.4672  154.7435 N.3     1  UNL1       -0.2692
     58 C         143.1781  131.6140  153.6598 C.3     1  UNL1        0.0897
     59 C         142.2970  131.8740  156.0899 C.3     1  UNL1        0.0897
@<TRIPOS>BOND
     1    45    46    1
     2     1    46    1
     3     1     2    1
     4     2     3    1
     5     3     4    2
     6     3     5    1
     7     5     6    1
     8     5     7    1
     9     7     8    2
    10     7     9    1
    11     9    10    1
    12     9    11    1
    13    11    47    1
    14    48    47    1
    15    48    49    1
    16    49    50    1
    17    50    51    1
    18    50    52    1
    19    52    53    1
    20    53    57    1
    21    57    58    1
    22    57    59    1
    23    53    54    1
    24    54    55    1
    25    11    12    1
    26    12    13    1
    27    12    14    1
    28    12    15    1
    29    15    16    1
    30    16    17    1
    31    16    18    1
    32    18    19    2
    33    18    20    1
    34    20    21    1
    35    20    22    1
    36    22    23    1
    37    23    30    1
    38    30    31    1
    39    31    32    1
    40    32    34    1
    41    34    35    1
    42    35    36   ar
    43    36    37   ar
    44    37    38   ar
    45    38    39   ar
    46    39    40   ar
    47    40    41   ar
    48    41    42   ar
    49    42    43   ar
    50    43    44   ar
    51    32    33    1
    52    23    24   am
    53    24    25    2
    54    24    26    1
    55    26    27    1
    56    27    28    1
    57    27     1    1
    58    54    48    1
    59    27    22    1
    60    33    30    1
    61    44    35   ar
    62    44    39   ar
    63    55    56    1
    64    14    29    1
@<TRIPOS>MOLECULE
*****
 59 64 0 0 0
SMALL
GASTEIGER

@<TRIPOS>ATOM
      1 C         139.0324  140.4696  153.5123 C.3     1  UNL1        0.2066
      2 O         138.5761  141.8931  153.6355 O.3     1  UNL1       -0.4483
      3 C         138.5240  143.2443  154.2849 C.2     1  UNL1        0.3235
      4 O         137.5924  144.0084  153.3915 O.2     1  UNL1       -0.2496
      5 C         138.8865  144.2553  155.3320 C.3     1  UNL1        0.1563
      6 C         138.1163  145.4694  154.9046 C.3     1  UNL1        0.0196
      7 C         139.5918  144.7261  156.5693 C.2     1  UNL1        0.1629
      8 O         139.1354  146.1496  156.6924 O.2     1  UNL1       -0.2954
      9 C         140.5002  144.5632  157.7518 C.3     1  UNL1        0.0877
     10 C         140.4481  145.9144  158.4012 C.3     1  UNL1        0.0104
     11 C         141.4318  143.7991  158.6453 C.3     1  UNL1        0.1490
     12 C         142.2021  142.5851  159.0728 C.3     1  UNL1        0.1141
     13 C         142.4304  143.7361  160.0071 C.3     1  UNL1        0.0318
     14 O         143.1392  142.2120  160.1829 O.3     1  UNL1       -0.3843
     15 C         142.6585  141.1615  158.9496 C.3     1  UNL1        0.0367
     16 C         142.7106  139.8104  158.3002 C.3     1  UNL1        0.0601
     17 C         143.6422  139.0463  159.1936 C.3     1  UNL1        0.0078
     18 C         142.3481  138.7994  157.2531 C.2     1  UNL1        0.1516
     19 O         143.1183  137.5853  157.6805 O.2     1  UNL1       -0.2960
     20 C         141.6428  138.3286  156.0158 C.3     1  UNL1        0.0794
     21 C         142.0992  136.9050  155.8926 C.3     1  UNL1        0.0096
     22 C         140.7343  138.4914  154.8333 C.3     1  UNL1        0.1254
     23 N         140.8708  137.1031  154.2819 N.am    1  UNL1       -0.2426
     24 C         140.0236  137.0092  153.0476 C.2     1  UNL1        0.4049
     25 O         139.8644  135.7977  152.1776 O.2     1  UNL1       -0.2262
     26 O         139.3635  138.3394  152.8362 O.3     1  UNL1       -0.4365
     27 C         139.8027  139.2555  153.9398 C.3     1  UNL1        0.1908
     28 C         138.8835  139.4819  152.7762 C.3     1  UNL1        0.0493
     29 H         143.2665  142.9747  160.7686 H       1  UNL1        0.2103
     30 C         141.7076  136.0021  154.8628 C.3     1  UNL1        0.1105
     31 C         141.4245  134.7582  155.6519 C.3     1  UNL1        0.0939
     32 N         142.8911  134.4449  155.6843 N.3     1  UNL1       -0.2660
     33 C         143.1742  135.6888  154.8952 C.3     1  UNL1        0.0939
     34 C         143.7278  133.3438  156.2652 C.3     1  UNL1        0.1008
     35 C         143.7797  132.0053  155.5902 C.ar    1  UNL1        0.0146
     36 C         143.4571  131.8888  154.1299 C.ar    1  UNL1        0.0193
     37 C         143.5090  130.5503  153.4549 C.ar    1  UNL1        0.0987
     38 N         143.8835  129.3283  154.2401 N.ar    1  UNL1       -0.2423
     39 C         144.2062  129.4449  155.7004 C.ar    1  UNL1        0.0987
     40 C         144.5807  128.2229  156.4855 C.ar    1  UNL1        0.0222
     41 C         144.9033  128.3394  157.9458 C.ar    1  UNL1        0.0222
     42 C         144.8514  129.6780  158.6208 C.ar    1  UNL1        0.0989
     43 N         144.4769  130.8999  157.8357 N.ar    1  UNL1       -0.2426
     44 C         144.1542  130.7834  156.3754 C.ar    1  UNL1        0.0962
     45 C         136.8458  140.1900  152.1374 C.3     1  UNL1        0.0040
     46 C         138.3272  139.9988  152.2750 C.3     1  UNL1        0.0474
     47 O         141.7943  144.8102  159.6923 O.3     1  UNL1       -0.3283
     48 C         141.7056  144.4497  161.1456 C.3     1  UNL1        0.2643
     49 O         142.9354  144.4852  162.0037 O.3     1  UNL1       -0.3311
     50 C         142.8466  144.1246  163.4570 C.3     1  UNL1        0.1194
     51 C         144.0764  144.1602  164.3151 C.3     1  UNL1        0.0322
     52 C         141.5280  143.7285  164.0523 C.3     1  UNL1        0.0482
     53 C         140.2981  143.6930  163.1942 C.3     1  UNL1        0.0921
     54 C         140.3869  144.0536  161.7409 C.3     1  UNL1        0.1815
     55 O         139.1571  144.0180  160.8828 O.3     1  UNL1       -0.3783
     56 H         138.3966  143.7440  161.4190 H       1  UNL1        0.2106
     57 N         138.9795  143.2969  163.7895 N.3     1  UNL1       -0.2692
     58 C         138.0887  144.3383  164.3991 C.3     1  UNL1        0.0897
     59 C         138.5518  141.8592  163.7751 C.3     1  UNL1        0.0897
@<TRIPOS>BOND
     1    45    46    1
     2     1    46    1
     3     1     2    1
     4     2     3    1
     5     3     4    2
     6     3     5    1
     7     5     6    1
     8     5     7    1
     9     7     8    2
    10     7     9    1
    11     9    10    1
    12     9    11    1
    13    11    47    1
    14    48    47    1
    15    48    49    1
    16    49    50    1
    17    50    51    1
    18    50    52    1
    19    52    53    1
    20    53    57    1
    21    57    58    1
    22    57    59    1
    23    53    54    1
    24    54    55    1
    25    11    12    1
    26    12    13    1
    27    12    14    1
    28    12    15    1
    29    15    16    1
    30    16    17    1
    31    16    18    1
    32    18    19    2
    33    18    20    1
    34    20    21    1
    35    20    22    1
    36    22    23    1
    37    23    30    1
    38    30    31    1
    39    31    32    1
    40    32    34    1
    41    34    35    1
    42    35    36   ar
    43    36    37   ar
    44    37    38   ar
    45    38    39   ar
    46    39    40   ar
    47    40    41   ar
    48    41    42   ar
    49    42    43   ar
    50    43    44   ar
    51    32    33    1
    52    23    24   am
    53    24    25    2
    54    24    26    1
    55    26    27    1
    56    27    28    1
    57    27     1    1
    58    54    48    1
    59    27    22    1
    60    33    30    1
    61    44    35   ar
    62    44    39   ar
    63    55    56    1
    64    14    29    1
@<TRIPOS>MOLECULE
*****
 59 64 0 0 0
SMALL
GASTEIGER

@<TRIPOS>ATOM
      1 C         140.2635  144.9058  157.1395 C.3     1  UNL1        0.2066
      2 O         140.3854  144.7103  155.6573 O.3     1  UNL1       -0.4483
      3 C         140.4151  143.8931  154.3998 C.2     1  UNL1        0.3235
      4 O         140.6353  144.9265  153.3352 O.2     1  UNL1       -0.2496
      5 C         140.3468  142.6159  153.6163 C.3     1  UNL1        0.1563
      6 C         140.5366  143.0809  152.2028 C.3     1  UNL1        0.0196
      7 C         140.1940  141.1318  153.4616 C.2     1  UNL1        0.1629
      8 O         140.3158  140.9363  151.9794 O.2     1  UNL1       -0.2954
      9 C         139.9870  139.7346  153.9666 C.3     1  UNL1        0.0877
     10 C         140.0167  138.9173  152.7091 C.3     1  UNL1        0.0104
     11 C         139.7668  138.7011  155.0313 C.3     1  UNL1        0.1490
     12 C         139.5770  138.2360  156.4447 C.3     1  UNL1        0.1141
     13 C         139.5408  137.0877  155.4803 C.3     1  UNL1        0.0318
     14 O         139.3607  136.9319  157.1534 O.3     1  UNL1       -0.3843
     15 C         139.4551  138.4315  157.9269 C.3     1  UNL1        0.0367
     16 C         139.4254  139.2487  159.1843 C.3     1  UNL1        0.0601
     17 C         139.2052  138.2152  160.2489 C.3     1  UNL1        0.0078
     18 C         139.4937  140.5259  159.9679 C.2     1  UNL1        0.1516
     19 O         139.3039  140.0609  161.3813 O.2     1  UNL1       -0.2960
     20 C         139.6465  142.0101  160.1226 C.3     1  UNL1        0.0794
     21 C         139.5246  142.2055  161.6048 C.3     1  UNL1        0.0096
     22 C         139.8535  143.4073  159.6176 C.3     1  UNL1        0.1254
     23 N         139.8042  144.1095  160.9421 N.am    1  UNL1       -0.2426
     24 C         139.9940  145.5770  160.6962 C.2     1  UNL1        0.4049
     25 O         140.0138  146.6511  161.7430 O.2     1  UNL1       -0.2262
     26 O         140.1605  145.7817  159.2196 O.3     1  UNL1       -0.4365
     27 C         140.0737  144.4407  158.5529 C.3     1  UNL1        0.1908
     28 C         140.2840  145.8132  157.9854 C.3     1  UNL1        0.0493
     29 H         139.3421  136.2107  156.5050 H       1  UNL1        0.2103
     30 C         139.6009  143.4585  162.2781 C.3     1  UNL1        0.1105
     31 C         140.5070  142.9777  163.3726 C.3     1  UNL1        0.0939
     32 N         139.3134  142.5379  164.1675 N.3     1  UNL1       -0.2660
     33 C         138.4073  143.0187  163.0730 C.3     1  UNL1        0.0939
     34 C         139.1101  141.8869  165.5036 C.3     1  UNL1        0.1008
     35 C         140.2872  141.6173  166.3934 C.ar    1  UNL1        0.0146
     36 C         140.6001  142.5497  167.5261 C.ar    1  UNL1        0.0193
     37 C         141.7771  142.2802  168.4160 C.ar    1  UNL1        0.0987
     38 N         142.6412  141.0783  168.1732 N.ar    1  UNL1       -0.2423
     39 C         142.3283  140.1460  167.0405 C.ar    1  UNL1        0.0987
     40 C         143.1924  138.9442  166.7978 C.ar    1  UNL1        0.0222
     41 C         142.8795  138.0119  165.6652 C.ar    1  UNL1        0.0222
     42 C         141.7023  138.2814  164.7753 C.ar    1  UNL1        0.0989
     43 N         140.8383  139.4832  165.0180 N.ar    1  UNL1       -0.2426
     44 C         141.1512  140.4156  166.1507 C.ar    1  UNL1        0.0962
     45 C         139.4191  147.3163  156.6638 C.3     1  UNL1        0.0040
     46 C         140.4163  146.3899  157.2942 C.3     1  UNL1        0.0474
     47 O         139.6985  137.4239  154.2476 O.3     1  UNL1       -0.3283
     48 C         140.6576  136.3095  154.5447 C.3     1  UNL1        0.2643
     49 O         141.6109  136.4275  155.6967 O.3     1  UNL1       -0.3311
     50 C         142.5700  135.3131  155.9938 C.3     1  UNL1        0.1194
     51 C         143.5233  135.4311  157.1459 C.3     1  UNL1        0.0322
     52 C         142.5758  134.0807  155.1388 C.3     1  UNL1        0.0482
     53 C         141.6225  133.9626  153.9867 C.3     1  UNL1        0.0921
     54 C         140.6634  135.0771  153.6897 C.3     1  UNL1        0.1815
     55 O         139.7101  134.9590  152.5375 O.3     1  UNL1       -0.3783
     56 H         139.8442  134.1075  152.0928 H       1  UNL1        0.2106
     57 N         141.6283  132.7302  153.1317 N.3     1  UNL1       -0.2692
     58 C         142.6966  132.5410  152.0959 C.3     1  UNL1        0.0897
     59 C         140.5658  131.6869  153.3125 C.3     1  UNL1        0.0897
@<TRIPOS>BOND
     1    45    46    1
     2     1    46    1
     3     1     2    1
     4     2     3    1
     5     3     4    2
     6     3     5    1
     7     5     6    1
     8     5     7    1
     9     7     8    2
    10     7     9    1
    11     9    10    1
    12     9    11    1
    13    11    47    1
    14    48    47    1
    15    48    49    1
    16    49    50    1
    17    50    51    1
    18    50    52    1
    19    52    53    1
    20    53    57    1
    21    57    58    1
    22    57    59    1
    23    53    54    1
    24    54    55    1
    25    11    12    1
    26    12    13    1
    27    12    14    1
    28    12    15    1
    29    15    16    1
    30    16    17    1
    31    16    18    1
    32    18    19    2
    33    18    20    1
    34    20    21    1
    35    20    22    1
    36    22    23    1
    37    23    30    1
    38    30    31    1
    39    31    32    1
    40    32    34    1
    41    34    35    1
    42    35    36   ar
    43    36    37   ar
    44    37    38   ar
    45    38    39   ar
    46    39    40   ar
    47    40    41   ar
    48    41    42   ar
    49    42    43   ar
    50    43    44   ar
    51    32    33    1
    52    23    24   am
    53    24    25    2
    54    24    26    1
    55    26    27    1
    56    27    28    1
    57    27     1    1
    58    54    48    1
    59    27    22    1
    60    33    30    1
    61    44    35   ar
    62    44    39   ar
    63    55    56    1
    64    14    29    1
@<TRIPOS>MOLECULE
*****
 59 64 0 0 0
SMALL
GASTEIGER

@<TRIPOS>ATOM
      1 C         140.2902  141.9099  155.9569 C.3     1  UNL1        0.2066
      2 O         140.2443  143.1585  156.7870 O.3     1  UNL1       -0.4483
      3 C         140.4931  143.9683  158.0248 C.2     1  UNL1        0.3235
      4 O         139.9416  145.3146  157.6593 O.2     1  UNL1       -0.2496
      5 C         140.9873  144.1790  159.4252 C.3     1  UNL1        0.1563
      6 C         140.6558  145.6190  159.6831 C.3     1  UNL1        0.0196
      7 C         141.6290  143.7490  160.7110 C.2     1  UNL1        0.1629
      8 O         141.5831  144.9975  161.5410 O.2     1  UNL1       -0.2954
      9 C         142.2912  142.7631  161.6274 C.3     1  UNL1        0.0877
     10 C         142.5400  143.5730  162.8652 C.3     1  UNL1        0.0104
     11 C         142.8427  141.4169  161.9928 C.3     1  UNL1        0.1490
     12 C         143.1742  139.9769  161.7351 C.3     1  UNL1        0.1141
     13 C         143.5954  140.3983  163.1117 C.3     1  UNL1        0.0318
     14 O         143.8135  138.8448  162.4831 O.3     1  UNL1       -0.3843
     15 C         143.2201  138.7283  160.9050 C.3     1  UNL1        0.0367
     16 C         142.9714  137.9184  159.6673 C.3     1  UNL1        0.0601
     17 C         143.5228  136.5722  160.0328 C.3     1  UNL1        0.0078
     18 C         142.4771  137.7077  158.2668 C.2     1  UNL1        0.1516
     19 O         142.8086  136.2677  158.0089 O.2     1  UNL1       -0.2960
     20 C         141.8354  138.1378  156.9810 C.3     1  UNL1        0.0794
     21 C         141.8813  136.8892  156.1510 C.3     1  UNL1        0.0096
     22 C         141.1732  139.1236  156.0647 C.3     1  UNL1        0.1254
     23 N         140.9812  138.2098  154.8907 N.am    1  UNL1       -0.2426
     24 C         140.3111  138.9912  153.7997 C.2     1  UNL1        0.4049
     25 O         139.9300  138.4678  152.4466 O.2     1  UNL1       -0.2262
     26 O         140.0889  140.3880  154.2994 O.3     1  UNL1       -0.4365
     27 C         140.6217  140.4698  155.6992 C.3     1  UNL1        0.1908
     28 C         139.9649  141.5020  154.8313 C.3     1  UNL1        0.0493
     29 H         144.0742  139.1476  163.3670 H       1  UNL1        0.2103
     30 C         141.3879  136.7677  154.8202 C.3     1  UNL1        0.1105
     31 C         142.5670  136.0241  154.2664 C.3     1  UNL1        0.0939
     32 N         141.9631  134.7283  154.7205 N.3     1  UNL1       -0.2660
     33 C         140.7840  135.4719  155.2744 C.3     1  UNL1        0.0939
     34 C         142.3700  133.2862  154.6500 C.3     1  UNL1        0.1008
     35 C         143.1257  132.6636  155.7863 C.ar    1  UNL1        0.0146
     36 C         144.0537  133.4995  156.6170 C.ar    1  UNL1        0.0193
     37 C         144.8095  132.8769  157.7533 C.ar    1  UNL1        0.0987
     38 N         144.6372  131.4185  158.0589 N.ar    1  UNL1       -0.2423
     39 C         143.7092  130.5827  157.2281 C.ar    1  UNL1        0.0987
     40 C         143.5370  129.1242  157.5337 C.ar    1  UNL1        0.0222
     41 C         142.6089  128.2884  156.7029 C.ar    1  UNL1        0.0222
     42 C         141.8531  128.9110  155.5665 C.ar    1  UNL1        0.0989
     43 N         142.0254  130.3694  155.2610 N.ar    1  UNL1       -0.2426
     44 C         142.9534  131.2053  156.0918 C.ar    1  UNL1        0.0962
     45 C         139.8528  143.7356  154.1611 C.3     1  UNL1        0.0040
     46 C         139.6485  142.3400  154.6712 C.3     1  UNL1        0.0474
     47 O         143.3369  141.6276  163.3933 O.3     1  UNL1       -0.3283
     48 C         142.9166  140.6900  164.4860 C.3     1  UNL1        0.2643
     49 O         143.8884  139.6824  165.0247 O.3     1  UNL1       -0.3311
     50 C         143.4681  138.7446  166.1175 C.3     1  UNL1        0.1194
     51 C         144.4399  137.7370  166.6562 C.3     1  UNL1        0.0322
     52 C         142.0759  138.8145  166.6715 C.3     1  UNL1        0.0482
     53 C         141.1040  139.8222  166.1328 C.3     1  UNL1        0.0921
     54 C         141.5244  140.7599  165.0400 C.3     1  UNL1        0.1815
     55 O         140.5525  141.7675  164.5014 O.3     1  UNL1       -0.3783
     56 H         139.7051  141.6793  164.9649 H       1  UNL1        0.2106
     57 N         139.7119  139.8921  166.6869 N.3     1  UNL1       -0.2692
     58 C         138.5606  139.3496  165.8930 C.3     1  UNL1        0.0897
     59 C         139.4710  140.5045  168.0348 C.3     1  UNL1        0.0897
@<TRIPOS>BOND
     1    45    46    1
     2     1    46    1
     3     1     2    1
     4     2     3    1
     5     3     4    2
     6     3     5    1
     7     5     6    1
     8     5     7    1
     9     7     8    2
    10     7     9    1
    11     9    10    1
    12     9    11    1
    13    11    47    1
    14    48    47    1
    15    48    49    1
    16    49    50    1
    17    50    51    1
    18    50    52    1
    19    52    53    1
    20    53    57    1
    21    57    58    1
    22    57    59    1
    23    53    54    1
    24    54    55    1
    25    11    12    1
    26    12    13    1
    27    12    14    1
    28    12    15    1
    29    15    16    1
    30    16    17    1
    31    16    18    1
    32    18    19    2
    33    18    20    1
    34    20    21    1
    35    20    22    1
    36    22    23    1
    37    23    30    1
    38    30    31    1
    39    31    32    1
    40    32    34    1
    41    34    35    1
    42    35    36   ar
    43    36    37   ar
    44    37    38   ar
    45    38    39   ar
    46    39    40   ar
    47    40    41   ar
    48    41    42   ar
    49    42    43   ar
    50    43    44   ar
    51    32    33    1
    52    23    24   am
    53    24    25    2
    54    24    26    1
    55    26    27    1
    56    27    28    1
    57    27     1    1
    58    54    48    1
    59    27    22    1
    60    33    30    1
    61    44    35   ar
    62    44    39   ar
    63    55    56    1
    64    14    29    1
@<TRIPOS>MOLECULE
*****
 59 64 0 0 0
SMALL
GASTEIGER

@<TRIPOS>ATOM
      1 C         141.4805  142.5929  156.0551 C.3     1  UNL1        0.2066
      2 O         140.9922  143.8822  156.6462 O.3     1  UNL1       -0.4483
      3 C         140.5406  144.7689  157.7686 C.2     1  UNL1        0.3235
      4 O         140.2571  146.0680  157.0743 O.2     1  UNL1       -0.2496
      5 C         140.2151  145.0775  159.1999 C.3     1  UNL1        0.1563
      6 C         139.7868  146.5138  159.1427 C.3     1  UNL1        0.0196
      7 C         140.0803  144.7468  160.6568 C.2     1  UNL1        0.1629
      8 O         139.5920  146.0360  161.2479 O.2     1  UNL1       -0.2954
      9 C         140.1628  143.8423  161.8506 C.3     1  UNL1        0.0877
     10 C         139.7111  144.7291  162.9730 C.3     1  UNL1        0.0104
     11 C         140.4462  142.5433  162.5449 C.3     1  UNL1        0.1490
     12 C         140.8745  141.1068  162.6022 C.3     1  UNL1        0.1141
     13 C         140.4983  141.6211  163.9601 C.3     1  UNL1        0.0318
     14 O         141.0279  140.0462  163.6517 O.3     1  UNL1       -0.3843
     15 C         141.3629  139.8176  162.0111 C.3     1  UNL1        0.0367
     16 C         141.8144  138.9309  160.8888 C.3     1  UNL1        0.0601
     17 C         142.0979  137.6318  161.5831 C.3     1  UNL1        0.0078
     18 C         142.1399  138.6223  159.4574 C.2     1  UNL1        0.1516
     19 O         142.5682  137.1859  159.5146 O.2     1  UNL1       -0.2960
     20 C         142.2748  138.9529  158.0005 C.3     1  UNL1        0.0794
     21 C         142.7631  137.6637  157.4094 C.3     1  UNL1        0.0096
     22 C         142.1923  139.8574  156.8067 C.3     1  UNL1        0.1254
     23 N         142.6589  138.8730  155.7756 N.am    1  UNL1       -0.2426
     24 C         142.6638  139.5636  154.4440 C.2     1  UNL1        0.4049
     25 O         143.0623  138.9506  153.1343 O.2     1  UNL1       -0.2262
     26 O         142.2002  140.9749  154.6522 O.3     1  UNL1       -0.4365
     27 C         141.9088  141.1565  156.1124 C.3     1  UNL1        0.1908
     28 C         141.8048  142.1101  154.9591 C.3     1  UNL1        0.0493
     29 H         140.7779  140.4082  164.5162 H       1  UNL1        0.2103
     30 C         143.0516  137.4480  156.0312 C.3     1  UNL1        0.1105
     31 C         142.4199  136.2836  156.7348 C.3     1  UNL1        0.0939
     32 N         143.6070  135.4329  156.3927 N.3     1  UNL1       -0.2660
     33 C         144.2387  136.5973  155.6891 C.3     1  UNL1        0.0939
     34 C         143.9997  134.0079  156.6484 C.3     1  UNL1        0.1008
     35 C         143.1483  132.8897  156.1243 C.ar    1  UNL1        0.0146
     36 C         142.0882  133.1705  155.1008 C.ar    1  UNL1        0.0193
     37 C         141.2368  132.0523  154.5767 C.ar    1  UNL1        0.0987
     38 N         141.4455  130.6533  155.0761 N.ar    1  UNL1       -0.2423
     39 C         142.5056  130.3726  156.0995 C.ar    1  UNL1        0.0987
     40 C         142.7142  128.9735  156.5988 C.ar    1  UNL1        0.0222
     41 C         143.7743  128.6928  157.6222 C.ar    1  UNL1        0.0222
     42 C         144.6257  129.8111  158.1464 C.ar    1  UNL1        0.0989
     43 N         144.4171  131.2100  157.6471 N.ar    1  UNL1       -0.2426
     44 C         143.3570  131.4908  156.6236 C.ar    1  UNL1        0.0962
     45 C         142.4470  144.0957  154.1690 C.3     1  UNL1        0.0040
     46 C         141.6153  142.9236  154.5982 C.3     1  UNL1        0.0474
     47 O         140.1208  142.8518  163.9763 O.3     1  UNL1       -0.3283
     48 C         141.1759  142.7095  165.0328 C.3     1  UNL1        0.2643
     49 O         142.5597  143.2332  164.7862 O.3     1  UNL1       -0.3311
     50 C         143.6150  143.0909  165.8427 C.3     1  UNL1        0.1194
     51 C         144.9987  143.6146  165.5961 C.3     1  UNL1        0.0322
     52 C         143.2864  142.4249  167.1460 C.3     1  UNL1        0.0482
     53 C         141.9025  141.9013  167.3927 C.3     1  UNL1        0.0921
     54 C         140.8473  142.0436  166.3361 C.3     1  UNL1        0.1815
     55 O         139.4635  141.5199  166.5828 O.3     1  UNL1       -0.3783
     56 H         139.4210  141.1225  167.4667 H       1  UNL1        0.2106
     57 N         141.5739  141.2353  168.6960 N.3     1  UNL1       -0.2692
     58 C         140.8580  142.0001  169.7695 C.3     1  UNL1        0.0897
     59 C         141.9613  139.8045  168.9257 C.3     1  UNL1        0.0897
@<TRIPOS>BOND
     1    45    46    1
     2     1    46    1
     3     1     2    1
     4     2     3    1
     5     3     4    2
     6     3     5    1
     7     5     6    1
     8     5     7    1
     9     7     8    2
    10     7     9    1
    11     9    10    1
    12     9    11    1
    13    11    47    1
    14    48    47    1
    15    48    49    1
    16    49    50    1
    17    50    51    1
    18    50    52    1
    19    52    53    1
    20    53    57    1
    21    57    58    1
    22    57    59    1
    23    53    54    1
    24    54    55    1
    25    11    12    1
    26    12    13    1
    27    12    14    1
    28    12    15    1
    29    15    16    1
    30    16    17    1
    31    16    18    1
    32    18    19    2
    33    18    20    1
    34    20    21    1
    35    20    22    1
    36    22    23    1
    37    23    30    1
    38    30    31    1
    39    31    32    1
    40    32    34    1
    41    34    35    1
    42    35    36   ar
    43    36    37   ar
    44    37    38   ar
    45    38    39   ar
    46    39    40   ar
    47    40    41   ar
    48    41    42   ar
    49    42    43   ar
    50    43    44   ar
    51    32    33    1
    52    23    24   am
    53    24    25    2
    54    24    26    1
    55    26    27    1
    56    27    28    1
    57    27     1    1
    58    54    48    1
    59    27    22    1
    60    33    30    1
    61    44    35   ar
    62    44    39   ar
    63    55    56    1
    64    14    29    1
@<TRIPOS>MOLECULE
*****
 59 64 0 0 0
SMALL
GASTEIGER

@<TRIPOS>ATOM
      1 C         142.1945  142.8185  156.1937 C.3     1  UNL1        0.2066
      2 O         143.4402  142.8541  157.0286 O.3     1  UNL1       -0.4483
      3 C         144.2407  142.6072  158.2730 C.2     1  UNL1        0.3235
      4 O         145.5973  143.1320  157.9067 O.2     1  UNL1       -0.2496
      5 C         144.4373  142.1269  159.6802 C.3     1  UNL1        0.1563
      6 C         145.8815  142.4378  159.9404 C.3     1  UNL1        0.0196
      7 C         143.9913  141.5081  160.9718 C.2     1  UNL1        0.1629
      8 O         145.2369  141.5437  161.8067 O.2     1  UNL1       -0.2954
      9 C         142.9908  140.8735  161.8918 C.3     1  UNL1        0.0877
     10 C         143.7913  140.6266  163.1361 C.3     1  UNL1        0.0104
     11 C         141.6342  140.3487  162.2581 C.3     1  UNL1        0.1490
     12 C         140.1900  140.0377  161.9980 C.3     1  UNL1        0.1141
     13 C         140.5986  139.6266  163.3815 C.3     1  UNL1        0.0318
     14 O         139.0444  139.4264  162.7488 O.3     1  UNL1       -0.3843
     15 C         138.9443  140.0022  161.1631 C.3     1  UNL1        0.0367
     16 C         138.1439  140.2490  159.9188 C.3     1  UNL1        0.0601
     17 C         136.7872  139.7242  160.2851 C.3     1  UNL1        0.0078
     18 C         137.9472  140.7294  158.5115 C.2     1  UNL1        0.1516
     19 O         136.5030  140.4185  158.2513 O.2     1  UNL1       -0.2960
     20 C         138.3932  141.3482  157.2199 C.3     1  UNL1        0.0794
     21 C         137.1476  141.3126  156.3850 C.3     1  UNL1        0.0096
     22 C         139.3937  141.9828  156.2999 C.3     1  UNL1        0.1254
     23 N         138.4881  142.1753  155.1197 N.am    1  UNL1       -0.2426
     24 C         139.2850  142.8191  154.0240 C.2     1  UNL1        0.4049
     25 O         138.7737  143.1921  152.6641 O.2     1  UNL1       -0.2262
     26 O         140.6832  143.0244  154.5271 O.3     1  UNL1       -0.4365
     27 C         140.7503  142.5075  155.9336 C.3     1  UNL1        0.1908
     28 C         141.7968  143.1367  155.0623 C.3     1  UNL1        0.0493
     29 H         139.3391  139.1716  163.6371 H       1  UNL1        0.2103
     30 C         137.0398  141.7915  155.0478 C.3     1  UNL1        0.1105
     31 C         135.7414  142.4978  155.3034 C.3     1  UNL1        0.0939
     32 N         134.9916  141.2487  154.9461 N.3     1  UNL1       -0.2660
     33 C         136.2900  140.5425  154.6904 C.3     1  UNL1        0.0939
     34 C         133.5433  140.8650  154.8742 C.3     1  UNL1        0.1008
     35 C         132.9051  140.1281  156.0142 C.ar    1  UNL1        0.0146
     36 C         133.7385  139.2498  156.8998 C.ar    1  UNL1        0.0193
     37 C         133.1003  138.5129  158.0398 C.ar    1  UNL1        0.0987
     38 N         131.6289  138.6542  158.2943 N.ar    1  UNL1       -0.2423
     39 C         130.7956  139.5325  157.4088 C.ar    1  UNL1        0.0987
     40 C         129.3240  139.6739  157.6633 C.ar    1  UNL1        0.0222
     41 C         128.4907  140.5522  156.7778 C.ar    1  UNL1        0.0222
     42 C         129.1290  141.2891  155.6377 C.ar    1  UNL1        0.0989
     43 N         130.6003  141.1478  155.3832 N.ar    1  UNL1       -0.2426
     44 C         131.4337  140.2694  156.2687 C.ar    1  UNL1        0.0962
     45 C         143.8758  142.9336  154.2164 C.3     1  UNL1        0.0040
     46 C         142.6406  143.4373  154.9022 C.3     1  UNL1        0.0474
     47 O         141.8308  139.8683  163.6654 O.3     1  UNL1       -0.3283
     48 C         141.4028  140.7276  164.8179 C.3     1  UNL1        0.2643
     49 O         140.6068  141.9743  164.5689 O.3     1  UNL1       -0.3311
     50 C         140.1787  142.8336  165.7214 C.3     1  UNL1        0.1194
     51 C         139.3827  144.0803  165.4724 C.3     1  UNL1        0.0322
     52 C         140.5468  142.4463  167.1230 C.3     1  UNL1        0.0482
     53 C         141.3429  141.1996  167.3721 C.3     1  UNL1        0.0921
     54 C         141.7709  140.3402  166.2195 C.3     1  UNL1        0.1815
     55 O         142.5670  139.0935  166.4686 O.3     1  UNL1       -0.3783
     56 H         142.7175  138.9909  167.4213 H       1  UNL1        0.2106
     57 N         141.7109  140.8122  168.7737 N.3     1  UNL1       -0.2692
     58 C         140.8212  139.8920  169.5557 C.3     1  UNL1        0.0897
     59 C         142.9688  141.3451  169.3933 C.3     1  UNL1        0.0897
@<TRIPOS>BOND
     1    45    46    1
     2     1    46    1
     3     1     2    1
     4     2     3    1
     5     3     4    2
     6     3     5    1
     7     5     6    1
     8     5     7    1
     9     7     8    2
    10     7     9    1
    11     9    10    1
    12     9    11    1
    13    11    47    1
    14    48    47    1
    15    48    49    1
    16    49    50    1
    17    50    51    1
    18    50    52    1
    19    52    53    1
    20    53    57    1
    21    57    58    1
    22    57    59    1
    23    53    54    1
    24    54    55    1
    25    11    12    1
    26    12    13    1
    27    12    14    1
    28    12    15    1
    29    15    16    1
    30    16    17    1
    31    16    18    1
    32    18    19    2
    33    18    20    1
    34    20    21    1
    35    20    22    1
    36    22    23    1
    37    23    30    1
    38    30    31    1
    39    31    32    1
    40    32    34    1
    41    34    35    1
    42    35    36   ar
    43    36    37   ar
    44    37    38   ar
    45    38    39   ar
    46    39    40   ar
    47    40    41   ar
    48    41    42   ar
    49    42    43   ar
    50    43    44   ar
    51    32    33    1
    52    23    24   am
    53    24    25    2
    54    24    26    1
    55    26    27    1
    56    27    28    1
    57    27     1    1
    58    54    48    1
    59    27    22    1
    60    33    30    1
    61    44    35   ar
    62    44    39   ar
    63    55    56    1
    64    14    29    1
