@<TRIPOS>MOLECULE
*****
 31 34 0 0 0
SMALL
GASTEIGER

@<TRIPOS>ATOM
      1 N         140.8323  140.5341  160.9381 N.am    1  UNL1       -0.2419
      2 C         140.6698  140.2442  159.4755 C.2     1  UNL1        0.2504
      3 O         141.3153  141.1372  158.4576 O.2     1  UNL1       -0.2726
      4 C         139.8617  139.0613  159.0306 C.3     1  UNL1        0.1754
      5 N         139.2163  138.1684  160.0484 N.pl3   1  UNL1       -0.3084
      6 C         139.3788  138.4583  161.5111 C.ar    1  UNL1        0.1611
      7 N         138.7333  137.5653  162.5289 N.ar    1  UNL1       -0.2249
      8 C         138.8958  137.8552  163.9916 C.ar    1  UNL1        0.1195
      9 C         139.7038  139.0381  164.4365 C.ar    1  UNL1        0.1034
     10 N         140.3493  139.9310  163.4187 N.ar    1  UNL1       -0.2258
     11 C         140.1868  139.6411  161.9560 C.ar    1  UNL1        0.1691
     12 H         138.6859  137.3920  159.7564 H       1  UNL1        0.1487
     13 C         143.2563  144.0827  162.2728 C.3     1  UNL1        0.1154
     14 C         143.9183  142.7495  162.0865 C.3     1  UNL1        0.0313
     15 C         143.1102  141.5667  161.6416 C.3     1  UNL1        0.0227
     16 C         141.6403  141.7170  161.3830 C.3     1  UNL1        0.0814
     17 C         140.9785  143.0501  161.5693 C.3     1  UNL1        0.0227
     18 C         141.7865  144.2329  162.0142 C.3     1  UNL1        0.0313
     19 C         144.0083  145.7174  164.1470 C.3     1  UNL1        0.1740
     20 O         144.0644  145.2656  162.7177 O.3     1  UNL1       -0.3536
     21 C         139.8664  139.3280  165.8993 C.ar    1  UNL1        0.0384
     22 C         141.2143  139.6941  166.4461 C.ar    1  UNL1        0.0044
     23 C         141.3768  139.9840  167.9088 C.ar    1  UNL1        0.0171
     24 C         140.1913  139.9078  168.8247 C.ar    1  UNL1        0.0830
     25 N         138.8433  139.5416  168.2779 N.ar    1  UNL1       -0.2458
     26 C         138.6809  139.2518  166.8152 C.ar    1  UNL1        0.1000
     27 C         140.3538  140.1976  170.2874 C.3     1  UNL1        0.1232
     28 C         141.7443  139.6367  170.2442 C.3     1  UNL1        0.0355
     29 C         138.9633  140.7585  170.3307 C.3     1  UNL1        0.0355
     30 O         140.5162  140.4875  171.7501 O.3     1  UNL1       -0.3812
     31 H         141.3990  140.2080  172.0390 H       1  UNL1        0.2107
@<TRIPOS>BOND
     1    19    20    1
     2    13    20    1
     3    13    14    1
     4    14    15    1
     5    15    16    1
     6    16     1    1
     7     1     2   am
     8     2     3    2
     9     2     4    1
    10     4     5    1
    11     5     6    1
    12     6     7   ar
    13     7     8   ar
    14     8     9   ar
    15     9    21    1
    16    21    22   ar
    17    22    23   ar
    18    23    24   ar
    19    24    27    1
    20    27    28    1
    21    27    29    1
    22    27    30    1
    23    24    25   ar
    24    25    26   ar
    25     9    10   ar
    26    10    11   ar
    27    16    17    1
    28    17    18    1
    29    18    13    1
    30    11     1    1
    31    11     6   ar
    32    26    21   ar
    33     5    12    1
    34    30    31    1
@<TRIPOS>MOLECULE
*****
 31 34 0 0 0
SMALL
GASTEIGER

@<TRIPOS>ATOM
      1 N         141.1252  143.2446  161.0293 N.am    1  UNL1       -0.2419
      2 C         141.0429  144.0766  159.7839 C.2     1  UNL1        0.2504
      3 O         141.7043  143.6059  158.5224 O.2     1  UNL1       -0.2726
      4 C         140.2993  145.3791  159.7999 C.3     1  UNL1        0.1754
      5 N         139.6380  145.8498  161.0612 N.pl3   1  UNL1       -0.3084
      6 C         139.7202  145.0178  162.3067 C.ar    1  UNL1        0.1611
      7 N         139.0589  145.4884  163.5681 N.ar    1  UNL1       -0.2249
      8 C         139.1412  144.6565  164.8134 C.ar    1  UNL1        0.1195
      9 C         139.8849  143.3539  164.7975 C.ar    1  UNL1        0.1034
     10 N         140.5462  142.8833  163.5361 N.ar    1  UNL1       -0.2258
     11 C         140.4639  143.7152  162.2907 C.ar    1  UNL1        0.1691
     12 H         139.1499  146.7047  161.0717 H       1  UNL1        0.1487
     13 C         143.3562  139.3368  160.9813 C.3     1  UNL1        0.1154
     14 C         141.8990  139.3729  160.6272 C.3     1  UNL1        0.0313
     15 C         141.1553  140.6755  160.6432 C.3     1  UNL1        0.0227
     16 C         141.8689  141.9420  161.0133 C.3     1  UNL1        0.0814
     17 C         143.3260  141.9059  161.3674 C.3     1  UNL1        0.0227
     18 C         144.0697  140.6033  161.3514 C.3     1  UNL1        0.0313
     19 C         143.4962  136.8341  160.2979 C.3     1  UNL1        0.1740
     20 O         144.0998  138.0343  160.9654 O.3     1  UNL1       -0.3536
     21 C         139.9671  142.5219  166.0430 C.ar    1  UNL1        0.0384
     22 C         140.3730  143.1537  167.3414 C.ar    1  UNL1        0.0044
     23 C         140.4553  142.3217  168.5869 C.ar    1  UNL1        0.0171
     24 C         140.1317  140.8580  168.5338 C.ar    1  UNL1        0.0830
     25 N         139.7258  140.2263  167.2352 N.ar    1  UNL1       -0.2458
     26 C         139.6435  141.0582  165.9899 C.ar    1  UNL1        0.1000
     27 C         140.2140  140.0261  169.7792 C.3     1  UNL1        0.1232
     28 C         141.6312  139.6660  169.4450 C.3     1  UNL1        0.0355
     29 C         138.7967  140.3862  170.1134 C.3     1  UNL1        0.0355
     30 O         140.2962  139.1941  171.0246 O.3     1  UNL1       -0.3812
     31 H         141.1780  138.7952  171.0893 H       1  UNL1        0.2107
@<TRIPOS>BOND
     1    19    20    1
     2    13    20    1
     3    13    14    1
     4    14    15    1
     5    15    16    1
     6    16     1    1
     7     1     2   am
     8     2     3    2
     9     2     4    1
    10     4     5    1
    11     5     6    1
    12     6     7   ar
    13     7     8   ar
    14     8     9   ar
    15     9    21    1
    16    21    22   ar
    17    22    23   ar
    18    23    24   ar
    19    24    27    1
    20    27    28    1
    21    27    29    1
    22    27    30    1
    23    24    25   ar
    24    25    26   ar
    25     9    10   ar
    26    10    11   ar
    27    16    17    1
    28    17    18    1
    29    18    13    1
    30    11     1    1
    31    11     6   ar
    32    26    21   ar
    33     5    12    1
    34    30    31    1
@<TRIPOS>MOLECULE
*****
 31 34 0 0 0
SMALL
GASTEIGER

@<TRIPOS>ATOM
      1 N         141.6790  140.1030  161.0176 N.am    1  UNL1       -0.2419
      2 C         142.0839  139.3697  159.7733 C.2     1  UNL1        0.2504
      3 O         141.9792  140.0443  158.4376 O.2     1  UNL1       -0.2726
      4 C         142.5935  137.9619  159.8646 C.3     1  UNL1        0.1754
      5 N         142.6982  137.2873  161.2002 N.pl3   1  UNL1       -0.3084
      6 C         142.2933  138.0205  162.4446 C.ar    1  UNL1        0.1611
      7 N         142.3980  137.3459  163.7802 N.ar    1  UNL1       -0.2249
      8 C         141.9931  138.0791  165.0245 C.ar    1  UNL1        0.1195
      9 C         141.4836  139.4870  164.9332 C.ar    1  UNL1        0.1034
     10 N         141.3789  140.1616  163.5976 N.ar    1  UNL1       -0.2258
     11 C         141.7837  139.4284  162.3533 C.ar    1  UNL1        0.1691
     12 H         143.0327  136.3633  161.2601 H       1  UNL1        0.1487
     13 C         140.1503  144.3265  160.7438 C.3     1  UNL1        0.1154
     14 C         141.6154  144.0703  160.9387 C.3     1  UNL1        0.0313
     15 C         142.1250  142.6625  161.0300 C.3     1  UNL1        0.0227
     16 C         141.1695  141.5108  160.9263 C.3     1  UNL1        0.0814
     17 C         139.7044  141.7670  160.7313 C.3     1  UNL1        0.0227
     18 C         139.1949  143.1748  160.6401 C.3     1  UNL1        0.0313
     19 C         139.5947  146.5963  161.8793 C.3     1  UNL1        0.1740
     20 O         139.6407  145.7343  160.6525 O.3     1  UNL1       -0.3536
     21 C         141.0787  140.2202  166.1777 C.ar    1  UNL1        0.0384
     22 C         139.9852  139.6745  167.0475 C.ar    1  UNL1        0.0044
     23 C         139.5804  140.4078  168.2919 C.ar    1  UNL1        0.0171
     24 C         140.2690  141.6867  168.6664 C.ar    1  UNL1        0.0830
     25 N         141.3624  142.2323  167.7966 N.ar    1  UNL1       -0.2458
     26 C         141.7673  141.4991  166.5522 C.ar    1  UNL1        0.1000
     27 C         139.8641  142.4199  169.9108 C.3     1  UNL1        0.1232
     28 C         140.6000  143.6366  169.4333 C.3     1  UNL1        0.0355
     29 C         139.1282  141.2032  170.3883 C.3     1  UNL1        0.0355
     30 O         139.4593  143.1531  171.1551 O.3     1  UNL1       -0.3812
     31 H         139.8207  144.0530  171.1322 H       1  UNL1        0.2107
@<TRIPOS>BOND
     1    19    20    1
     2    13    20    1
     3    13    14    1
     4    14    15    1
     5    15    16    1
     6    16     1    1
     7     1     2   am
     8     2     3    2
     9     2     4    1
    10     4     5    1
    11     5     6    1
    12     6     7   ar
    13     7     8   ar
    14     8     9   ar
    15     9    21    1
    16    21    22   ar
    17    22    23   ar
    18    23    24   ar
    19    24    27    1
    20    27    28    1
    21    27    29    1
    22    27    30    1
    23    24    25   ar
    24    25    26   ar
    25     9    10   ar
    26    10    11   ar
    27    16    17    1
    28    17    18    1
    29    18    13    1
    30    11     1    1
    31    11     6   ar
    32    26    21   ar
    33     5    12    1
    34    30    31    1
@<TRIPOS>MOLECULE
*****
 31 34 0 0 0
SMALL
GASTEIGER

@<TRIPOS>ATOM
      1 N         138.8018  142.5325  161.4489 N.am    1  UNL1       -0.2419
      2 C         137.9023  143.1475  162.4798 C.2     1  UNL1        0.2504
      3 O         137.7664  144.6390  162.5628 O.2     1  UNL1       -0.2726
      4 C         137.1387  142.2709  163.4278 C.3     1  UNL1        0.1754
      5 N         137.2746  140.7794  163.3448 N.pl3   1  UNL1       -0.3084
      6 C         138.1741  140.1644  162.3139 C.ar    1  UNL1        0.1611
      7 N         138.3100  138.6729  162.2310 N.ar    1  UNL1       -0.2249
      8 C         139.2095  138.0580  161.2001 C.ar    1  UNL1        0.1195
      9 C         139.9730  138.9345  160.2521 C.ar    1  UNL1        0.1034
     10 N         139.8371  140.4260  160.3351 N.ar    1  UNL1       -0.2258
     11 C         138.9377  141.0409  161.3660 C.ar    1  UNL1        0.1691
     12 H         136.7735  140.2041  163.9670 H       1  UNL1        0.1487
     13 C         141.0925  145.1622  158.6051 C.3     1  UNL1        0.1154
     14 C         139.9748  144.3013  158.0955 C.3     1  UNL1        0.0313
     15 C         139.2112  143.4247  159.0434 C.3     1  UNL1        0.0227
     16 C         139.5653  143.4091  160.5010 C.3     1  UNL1        0.0814
     17 C         140.6830  144.2700  161.0105 C.3     1  UNL1        0.0227
     18 C         141.4466  145.1465  160.0626 C.3     1  UNL1        0.0313
     19 C         142.0819  145.5951  156.2421 C.3     1  UNL1        0.1740
     20 O         141.8561  146.0387  157.6571 O.3     1  UNL1       -0.3536
     21 C         140.8725  138.3195  159.2212 C.ar    1  UNL1        0.0384
     22 C         140.3470  138.0237  157.8478 C.ar    1  UNL1        0.0044
     23 C         141.2464  137.4087  156.8169 C.ar    1  UNL1        0.0171
     24 C         142.6715  137.0895  157.1594 C.ar    1  UNL1        0.0830
     25 N         143.1970  137.3853  158.5329 N.ar    1  UNL1       -0.2458
     26 C         142.2976  138.0003  159.5637 C.ar    1  UNL1        0.1000
     27 C         143.5710  136.4745  156.1286 C.3     1  UNL1        0.1232
     28 C         143.7960  137.8262  155.5186 C.3     1  UNL1        0.0355
     29 C         143.3459  135.1228  156.7386 C.3     1  UNL1        0.0355
     30 O         144.4704  135.8595  155.0977 O.3     1  UNL1       -0.3812
     31 H         144.8016  136.5511  154.5036 H       1  UNL1        0.2107
@<TRIPOS>BOND
     1    19    20    1
     2    13    20    1
     3    13    14    1
     4    14    15    1
     5    15    16    1
     6    16     1    1
     7     1     2   am
     8     2     3    2
     9     2     4    1
    10     4     5    1
    11     5     6    1
    12     6     7   ar
    13     7     8   ar
    14     8     9   ar
    15     9    21    1
    16    21    22   ar
    17    22    23   ar
    18    23    24   ar
    19    24    27    1
    20    27    28    1
    21    27    29    1
    22    27    30    1
    23    24    25   ar
    24    25    26   ar
    25     9    10   ar
    26    10    11   ar
    27    16    17    1
    28    17    18    1
    29    18    13    1
    30    11     1    1
    31    11     6   ar
    32    26    21   ar
    33     5    12    1
    34    30    31    1
@<TRIPOS>MOLECULE
*****
 31 34 0 0 0
SMALL
GASTEIGER

@<TRIPOS>ATOM
      1 N         141.7626  140.8078  166.6668 N.am    1  UNL1       -0.2419
      2 C         141.7406  140.6990  168.1627 C.2     1  UNL1        0.2504
      3 O         140.8318  139.7093  168.8294 O.2     1  UNL1       -0.2726
      4 C         142.6275  141.5799  168.9918 C.3     1  UNL1        0.1754
      5 N         143.5363  142.5696  168.3251 N.pl3   1  UNL1       -0.3084
      6 C         143.5583  142.6784  166.8292 C.ar    1  UNL1        0.1611
      7 N         144.4671  143.6681  166.1625 N.ar    1  UNL1       -0.2249
      8 C         144.4891  143.7769  164.6667 C.ar    1  UNL1        0.1195
      9 C         143.6023  142.8960  163.8375 C.ar    1  UNL1        0.1034
     10 N         142.6934  141.9063  164.5042 N.ar    1  UNL1       -0.2258
     11 C         142.6715  141.7975  166.0000 C.ar    1  UNL1        0.1691
     12 H         144.1184  143.1477  168.8694 H       1  UNL1        0.1487
     13 C         139.1020  138.1651  164.1793 C.3     1  UNL1        0.1154
     14 C         138.5921  139.4838  164.6806 C.3     1  UNL1        0.0313
     15 C         139.4790  140.3647  165.5097 C.3     1  UNL1        0.0227
     16 C         140.8757  139.9269  165.8376 C.3     1  UNL1        0.0814
     17 C         141.3856  138.6083  165.3364 C.3     1  UNL1        0.0227
     18 C         140.4987  137.7274  164.5072 C.3     1  UNL1        0.0313
     19 C         137.8180  137.7086  161.9673 C.3     1  UNL1        0.1740
     20 O         138.2152  137.2842  163.3501 O.3     1  UNL1       -0.3536
     21 C         143.6243  143.0048  162.3416 C.ar    1  UNL1        0.0384
     22 C         144.6417  142.2392  161.5488 C.ar    1  UNL1        0.0044
     23 C         144.6637  142.3480  160.0528 C.ar    1  UNL1        0.0171
     24 C         143.6683  143.2225  159.3498 C.ar    1  UNL1        0.0830
     25 N         142.6508  143.9882  160.1426 N.ar    1  UNL1       -0.2458
     26 C         142.6288  143.8793  161.6385 C.ar    1  UNL1        0.1000
     27 C         143.6902  143.3313  157.8539 C.3     1  UNL1        0.1232
     28 C         144.8540  142.3864  157.8023 C.3     1  UNL1        0.0355
     29 C         142.5265  144.2763  157.9056 C.3     1  UNL1        0.0355
     30 O         143.7122  143.4402  156.3581 O.3     1  UNL1       -0.3812
     31 H         144.4265  142.8876  156.0041 H       1  UNL1        0.2107
@<TRIPOS>BOND
     1    19    20    1
     2    13    20    1
     3    13    14    1
     4    14    15    1
     5    15    16    1
     6    16     1    1
     7     1     2   am
     8     2     3    2
     9     2     4    1
    10     4     5    1
    11     5     6    1
    12     6     7   ar
    13     7     8   ar
    14     8     9   ar
    15     9    21    1
    16    21    22   ar
    17    22    23   ar
    18    23    24   ar
    19    24    27    1
    20    27    28    1
    21    27    29    1
    22    27    30    1
    23    24    25   ar
    24    25    26   ar
    25     9    10   ar
    26    10    11   ar
    27    16    17    1
    28    17    18    1
    29    18    13    1
    30    11     1    1
    31    11     6   ar
    32    26    21   ar
    33     5    12    1
    34    30    31    1
@<TRIPOS>MOLECULE
*****
 31 34 0 0 0
SMALL
GASTEIGER

@<TRIPOS>ATOM
      1 N         139.9343  141.7668  162.9932 N.am    1  UNL1       -0.2419
      2 C         139.0861  142.7018  163.8033 C.2     1  UNL1        0.2504
      3 O         139.3216  142.8408  165.2782 O.2     1  UNL1       -0.2726
      4 C         138.0024  143.4979  163.1385 C.3     1  UNL1        0.1754
      5 N         137.7669  143.3590  161.6637 N.pl3   1  UNL1       -0.3084
      6 C         138.6151  142.4239  160.8535 C.ar    1  UNL1        0.1611
      7 N         138.3796  142.2849  159.3787 N.ar    1  UNL1       -0.2249
      8 C         139.2278  141.3499  158.5686 C.ar    1  UNL1        0.1195
      9 C         140.3115  140.5538  159.2334 C.ar    1  UNL1        0.1034
     10 N         140.5470  140.6928  160.7082 N.ar    1  UNL1       -0.2258
     11 C         139.6988  141.6278  161.5183 C.ar    1  UNL1        0.1691
     12 H         137.0557  143.8815  161.2274 H       1  UNL1        0.1487
     13 C         143.1853  139.3785  164.9875 C.3     1  UNL1        0.1154
     14 C         143.4862  140.7405  164.4357 C.3     1  UNL1        0.0313
     15 C         142.4025  141.5366  163.7709 C.3     1  UNL1        0.0227
     16 C         141.0179  140.9707  163.6580 C.3     1  UNL1        0.0814
     17 C         140.7171  139.6088  164.2098 C.3     1  UNL1        0.0227
     18 C         141.8007  138.8127  164.8746 C.3     1  UNL1        0.0313
     19 C         143.9488  137.7275  166.8426 C.3     1  UNL1        0.1740
     20 O         144.2689  138.5825  165.6523 O.3     1  UNL1       -0.3536
     21 C         141.1597  139.6187  158.4232 C.ar    1  UNL1        0.0384
     22 C         140.5232  138.4812  157.6811 C.ar    1  UNL1        0.0044
     23 C         141.3714  137.5461  156.8709 C.ar    1  UNL1        0.0171
     24 C         142.8561  137.7487  156.8030 C.ar    1  UNL1        0.0830
     25 N         143.4926  138.8863  157.5452 N.ar    1  UNL1       -0.2458
     26 C         142.6444  139.8213  158.3553 C.ar    1  UNL1        0.1000
     27 C         143.7043  136.8137  155.9929 C.3     1  UNL1        0.1232
     28 C         143.1250  135.6456  156.7345 C.3     1  UNL1        0.0355
     29 C         144.2835  137.9817  155.2512 C.3     1  UNL1        0.0355
     30 O         144.5525  135.8787  155.1828 O.3     1  UNL1       -0.3812
     31 H         144.3821  134.9650  155.4603 H       1  UNL1        0.2107
@<TRIPOS>BOND
     1    19    20    1
     2    13    20    1
     3    13    14    1
     4    14    15    1
     5    15    16    1
     6    16     1    1
     7     1     2   am
     8     2     3    2
     9     2     4    1
    10     4     5    1
    11     5     6    1
    12     6     7   ar
    13     7     8   ar
    14     8     9   ar
    15     9    21    1
    16    21    22   ar
    17    22    23   ar
    18    23    24   ar
    19    24    27    1
    20    27    28    1
    21    27    29    1
    22    27    30    1
    23    24    25   ar
    24    25    26   ar
    25     9    10   ar
    26    10    11   ar
    27    16    17    1
    28    17    18    1
    29    18    13    1
    30    11     1    1
    31    11     6   ar
    32    26    21   ar
    33     5    12    1
    34    30    31    1
@<TRIPOS>MOLECULE
*****
 31 34 0 0 0
SMALL
GASTEIGER

@<TRIPOS>ATOM
      1 N         140.5114  143.0573  163.3120 N.am    1  UNL1       -0.2419
      2 C         139.3891  143.5491  164.1772 C.2     1  UNL1        0.2504
      3 O         139.1991  142.9825  165.5531 O.2     1  UNL1       -0.2726
      4 C         138.4569  144.6076  163.6667 C.3     1  UNL1        0.1754
      5 N         138.6469  145.1742  162.2909 N.pl3   1  UNL1       -0.3084
      6 C         139.7692  144.6824  161.4256 C.ar    1  UNL1        0.1611
      7 N         139.9592  145.2490  160.0498 N.ar    1  UNL1       -0.2249
      8 C         141.0814  144.7572  159.1846 C.ar    1  UNL1        0.1195
      9 C         142.0136  143.6987  159.6951 C.ar    1  UNL1        0.1034
     10 N         141.8236  143.1321  161.0709 N.ar    1  UNL1       -0.2258
     11 C         140.7014  143.6239  161.9361 C.ar    1  UNL1        0.1691
     12 H         138.0351  145.8689  161.9558 H       1  UNL1        0.1487
     13 C         143.3080  139.8820  164.8436 C.3     1  UNL1        0.1154
     14 C         143.5780  141.3269  165.1427 C.3     1  UNL1        0.0313
     15 C         142.6458  142.3853  164.6322 C.3     1  UNL1        0.0227
     16 C         141.4436  141.9989  163.8225 C.3     1  UNL1        0.0814
     17 C         141.1737  140.5540  163.5235 C.3     1  UNL1        0.0227
     18 C         142.1059  139.4956  164.0340 C.3     1  UNL1        0.0313
     19 C         143.8668  138.0134  166.5601 C.3     1  UNL1        0.1740
     20 O         144.2403  138.8235  165.3541 O.3     1  UNL1       -0.3536
     21 C         143.1359  143.2069  158.8298 C.ar    1  UNL1        0.0384
     22 C         142.9342  143.0618  157.3505 C.ar    1  UNL1        0.0044
     23 C         144.0565  142.5700  156.4852 C.ar    1  UNL1        0.0171
     24 C         145.3804  142.2232  157.0992 C.ar    1  UNL1        0.0830
     25 N         145.5820  142.3683  158.5786 N.ar    1  UNL1       -0.2458
     26 C         144.4598  142.8601  159.4438 C.ar    1  UNL1        0.1000
     27 C         146.5026  141.7314  156.2340 C.3     1  UNL1        0.1232
     28 C         145.5854  140.7142  155.6225 C.3     1  UNL1        0.0355
     29 C         147.4198  142.7487  156.8455 C.3     1  UNL1        0.0355
     30 O         147.6248  141.2396  155.3688 O.3     1  UNL1       -0.3812
     31 H         147.3075  140.5134  154.8095 H       1  UNL1        0.2107
@<TRIPOS>BOND
     1    19    20    1
     2    13    20    1
     3    13    14    1
     4    14    15    1
     5    15    16    1
     6    16     1    1
     7     1     2   am
     8     2     3    2
     9     2     4    1
    10     4     5    1
    11     5     6    1
    12     6     7   ar
    13     7     8   ar
    14     8     9   ar
    15     9    21    1
    16    21    22   ar
    17    22    23   ar
    18    23    24   ar
    19    24    27    1
    20    27    28    1
    21    27    29    1
    22    27    30    1
    23    24    25   ar
    24    25    26   ar
    25     9    10   ar
    26    10    11   ar
    27    16    17    1
    28    17    18    1
    29    18    13    1
    30    11     1    1
    31    11     6   ar
    32    26    21   ar
    33     5    12    1
    34    30    31    1
@<TRIPOS>MOLECULE
*****
 31 34 0 0 0
SMALL
GASTEIGER

@<TRIPOS>ATOM
      1 N         143.2070  140.0759  158.9652 N.am    1  UNL1       -0.2419
      2 C         143.4991  141.5424  159.0836 C.2     1  UNL1        0.2504
      3 O         143.2952  142.2444  160.3934 O.2     1  UNL1       -0.2726
      4 C         143.9950  142.3069  157.8921 C.3     1  UNL1        0.1754
      5 N         144.1989  141.6049  156.5823 N.pl3   1  UNL1       -0.3084
      6 C         143.9069  140.1383  156.4639 C.ar    1  UNL1        0.1611
      7 N         144.1108  139.4364  155.1541 N.ar    1  UNL1       -0.2249
      8 C         143.8187  137.9699  155.0358 C.ar    1  UNL1        0.1195
      9 C         143.3228  137.2054  156.2272 C.ar    1  UNL1        0.1034
     10 N         143.1189  137.9073  157.5370 N.ar    1  UNL1       -0.2258
     11 C         143.4109  139.3738  157.6554 C.ar    1  UNL1        0.1691
     12 H         144.5245  142.1067  155.8004 H       1  UNL1        0.1487
     13 C         141.7192  137.7823  162.5395 C.3     1  UNL1        0.1154
     14 C         140.7531  138.2418  161.4880 C.3     1  UNL1        0.0313
     15 C         141.2491  139.0063  160.2966 C.3     1  UNL1        0.0227
     16 C         142.7111  139.3113  160.1567 C.3     1  UNL1        0.0814
     17 C         143.6771  138.8519  161.2081 C.3     1  UNL1        0.0227
     18 C         143.1811  138.0873  162.3996 C.3     1  UNL1        0.0313
     19 C         140.1680  137.6111  164.6167 C.3     1  UNL1        0.1740
     20 O         141.2232  137.0178  163.7310 O.3     1  UNL1       -0.3536
     21 C         143.0307  135.7388  156.1088 C.ar    1  UNL1        0.0384
     22 C         142.5839  135.1666  154.7962 C.ar    1  UNL1        0.0044
     23 C         142.2918  133.7001  154.6778 C.ar    1  UNL1        0.0171
     24 C         142.4467  132.8057  155.8720 C.ar    1  UNL1        0.0830
     25 N         142.8936  133.3779  157.1847 N.ar    1  UNL1       -0.2458
     26 C         143.1856  134.8444  157.3030 C.ar    1  UNL1        0.1000
     27 C         142.1546  131.3392  155.7537 C.3     1  UNL1        0.1232
     28 C         143.1062  131.0589  156.8788 C.3     1  UNL1        0.0355
     29 C         141.2031  131.6195  154.6285 C.3     1  UNL1        0.0355
     30 O         141.8626  129.8727  155.6353 O.3     1  UNL1       -0.3812
     31 H         142.3798  129.3857  156.2958 H       1  UNL1        0.2107
@<TRIPOS>BOND
     1    19    20    1
     2    13    20    1
     3    13    14    1
     4    14    15    1
     5    15    16    1
     6    16     1    1
     7     1     2   am
     8     2     3    2
     9     2     4    1
    10     4     5    1
    11     5     6    1
    12     6     7   ar
    13     7     8   ar
    14     8     9   ar
    15     9    21    1
    16    21    22   ar
    17    22    23   ar
    18    23    24   ar
    19    24    27    1
    20    27    28    1
    21    27    29    1
    22    27    30    1
    23    24    25   ar
    24    25    26   ar
    25     9    10   ar
    26    10    11   ar
    27    16    17    1
    28    17    18    1
    29    18    13    1
    30    11     1    1
    31    11     6   ar
    32    26    21   ar
    33     5    12    1
    34    30    31    1
@<TRIPOS>MOLECULE
*****
 31 34 0 0 0
SMALL
GASTEIGER

@<TRIPOS>ATOM
      1 N         139.5457  143.4853  162.2038 N.am    1  UNL1       -0.2419
      2 C         139.4362  144.8321  162.8548 C.2     1  UNL1        0.2504
      3 O         139.1213  144.9346  164.3179 O.2     1  UNL1       -0.2726
      4 C         139.6417  146.0766  162.0429 C.3     1  UNL1        0.1754
      5 N         139.9566  145.9741  160.5800 N.pl3   1  UNL1       -0.3084
      6 C         140.0661  144.6272  159.9288 C.ar    1  UNL1        0.1611
      7 N         140.3810  144.5248  158.4659 N.ar    1  UNL1       -0.2249
      8 C         140.4905  143.1779  157.8148 C.ar    1  UNL1        0.1195
      9 C         140.2851  141.9335  158.6268 C.ar    1  UNL1        0.1034
     10 N         139.9701  142.0359  160.0897 N.ar    1  UNL1       -0.2258
     11 C         139.8606  143.3828  160.7407 C.ar    1  UNL1        0.1691
     12 H         140.0914  146.7909  160.0471 H       1  UNL1        0.1487
     13 C         138.9294  139.7520  164.6395 C.3     1  UNL1        0.1154
     14 C         140.3071  140.3225  164.4770 C.3     1  UNL1        0.0313
     15 C         140.5126  141.5670  163.6651 C.3     1  UNL1        0.0227
     16 C         139.3403  142.2408  163.0157 C.3     1  UNL1        0.0814
     17 C         137.9626  141.6703  163.1782 C.3     1  UNL1        0.0227
     18 C         137.7571  140.4259  163.9901 C.3     1  UNL1        0.0313
     19 C         137.8228  138.5345  166.6503 C.3     1  UNL1        0.1740
     20 O         138.7239  138.5076  165.4514 O.3     1  UNL1       -0.3536
     21 C         140.3946  140.5865  157.9756 C.ar    1  UNL1        0.0384
     22 C         141.7199  140.1073  157.4620 C.ar    1  UNL1        0.0044
     23 C         141.8294  138.7604  156.8108 C.ar    1  UNL1        0.0171
     24 C         140.6135  137.8928  156.6734 C.ar    1  UNL1        0.0830
     25 N         139.2882  138.3720  157.1871 N.ar    1  UNL1       -0.2458
     26 C         139.1787  139.7189  157.8382 C.ar    1  UNL1        0.1000
     27 C         140.7230  136.5459  156.0223 C.3     1  UNL1        0.1232
     28 C         139.3900  136.7544  155.3669 C.3     1  UNL1        0.0355
     29 C         142.0560  136.3374  156.6778 C.3     1  UNL1        0.0355
     30 O         140.8324  135.1991  155.3713 O.3     1  UNL1       -0.3812
     31 H         140.0433  135.0359  154.8313 H       1  UNL1        0.2107
@<TRIPOS>BOND
     1    19    20    1
     2    13    20    1
     3    13    14    1
     4    14    15    1
     5    15    16    1
     6    16     1    1
     7     1     2   am
     8     2     3    2
     9     2     4    1
    10     4     5    1
    11     5     6    1
    12     6     7   ar
    13     7     8   ar
    14     8     9   ar
    15     9    21    1
    16    21    22   ar
    17    22    23   ar
    18    23    24   ar
    19    24    27    1
    20    27    28    1
    21    27    29    1
    22    27    30    1
    23    24    25   ar
    24    25    26   ar
    25     9    10   ar
    26    10    11   ar
    27    16    17    1
    28    17    18    1
    29    18    13    1
    30    11     1    1
    31    11     6   ar
    32    26    21   ar
    33     5    12    1
    34    30    31    1
