@<TRIPOS>MOLECULE
*****
 39 43 0 0 0
SMALL
GASTEIGER

@<TRIPOS>ATOM
      1 C         137.9481  140.8423  163.2302 C.ar    1  UNL1        0.1533
      2 C         138.6044  141.2403  164.5191 C.ar    1  UNL1        0.0527
      3 C         139.3213  140.2130  165.3441 C.ar    1  UNL1        0.0511
      4 C         139.3820  138.7878  164.8804 C.ar    1  UNL1        0.0160
      5 C         138.7257  138.3898  163.5916 C.ar    1  UNL1        0.0190
      6 C         138.0088  139.4171  162.7665 C.ar    1  UNL1        0.0850
      7 N         139.9774  140.6110  166.6329 N.pl3   1  UNL1       -0.3040
      8 C         141.0671  141.6419  166.6326 C.3     1  UNL1        0.1123
      9 C         141.7233  142.0400  167.9214 C.3     1  UNL1        0.1149
     10 N         141.2899  141.4072  169.2104 N.am    1  UNL1       -0.2750
     11 C         141.9461  141.8052  170.4992 C.2     1  UNL1        0.2398
     12 O         141.5127  141.1724  171.7883 O.2     1  UNL1       -0.2734
     13 C         140.2003  140.3763  169.2107 C.3     1  UNL1        0.1149
     14 C         139.5440  139.9782  167.9220 C.3     1  UNL1        0.1123
     15 C         143.0357  142.8361  170.4989 C.3     1  UNL1        0.1286
     16 C         144.4085  142.4763  170.0131 C.3     1  UNL1        0.0267
     17 N         142.7526  144.2269  170.9843 N.3     1  UNL1       -0.3150
     18 H         143.5999  144.7905  170.9144 H       1  UNL1        0.1192
     19 H         142.4468  144.1919  171.9568 H       1  UNL1        0.1192
     20 C         138.0117  142.9157  161.6660 C.3     1  UNL1        0.2525
     21 O         137.2312  141.8696  162.4051 O.3     1  UNL1       -0.4701
     22 N         137.3526  139.0190  161.4777 N.pl3   1  UNL1       -0.2802
     23 H         136.4730  138.5771  161.4892 H       1  UNL1        0.1552
     24 C         138.0367  139.2943  160.1714 C.ar    1  UNL1        0.2208
     25 N         139.3293  138.6081  159.8425 N.ar    1  UNL1       -0.2111
     26 C         140.0133  138.8834  158.5363 C.ar    1  UNL1        0.1147
     27 C         139.4047  139.8449  157.5589 C.ar    1  UNL1        0.0960
     28 CL        140.0887  140.1201  156.2527 Cl      1  UNL1       -0.0790
     29 C         138.1120  140.5311  157.8879 C.ar    1  UNL1        0.1138
     30 N         137.4280  140.2558  159.1941 N.ar    1  UNL1       -0.2111
     31 C         137.5033  141.4925  156.9105 C.ar    1  UNL1        0.1031
     32 C         136.2443  141.2729  156.1254 C.ar    1  UNL1        0.1196
     33 N         136.0098  142.4870  155.2764 N.ar    1  UNL1       -0.2248
     34 C         137.1239  143.4571  155.5368 C.ar    1  UNL1        0.1479
     35 C         137.4171  144.8206  154.9848 C.ar    1  UNL1        0.0374
     36 C         138.6333  145.5695  155.4428 C.ar    1  UNL1        0.0046
     37 C         139.5564  144.9548  156.4528 C.ar    1  UNL1        0.0191
     38 C         139.2633  143.5913  157.0048 C.ar    1  UNL1        0.0815
     39 N         138.0470  142.8424  156.5468 N.ar    1  UNL1       -0.2874
@<TRIPOS>BOND
     1    20    21    1
     2    21     1    1
     3     1     2   ar
     4     2     3   ar
     5     3     7    1
     6     7     8    1
     7     8     9    1
     8     9    10    1
     9    10    11   am
    10    11    12    2
    11    11    15    1
    12    15    16    1
    13    15    17    1
    14    10    13    1
    15    13    14    1
    16     3     4   ar
    17     4     5   ar
    18     5     6   ar
    19     6    22    1
    20    22    24    1
    21    24    25   ar
    22    25    26   ar
    23    26    27   ar
    24    27    28    1
    25    27    29   ar
    26    29    31    1
    27    31    32   ar
    28    32    33   ar
    29    33    34   ar
    30    34    35   ar
    31    35    36   ar
    32    36    37   ar
    33    37    38   ar
    34    38    39   ar
    35    29    30   ar
    36     6     1   ar
    37    30    24   ar
    38    14     7    1
    39    39    31   ar
    40    39    34   ar
    41    17    18    1
    42    17    19    1
    43    22    23    1
@<TRIPOS>MOLECULE
*****
 39 43 0 0 0
SMALL
GASTEIGER

@<TRIPOS>ATOM
      1 C         142.0092  137.9864  163.0014 C.ar    1  UNL1        0.1533
      2 C         141.8278  138.5933  164.3613 C.ar    1  UNL1        0.0527
      3 C         142.9483  139.3637  164.9943 C.ar    1  UNL1        0.0511
      4 C         144.2503  139.5274  164.2677 C.ar    1  UNL1        0.0160
      5 C         144.4317  138.9206  162.9080 C.ar    1  UNL1        0.0190
      6 C         143.3112  138.1501  162.2748 C.ar    1  UNL1        0.0850
      7 N         142.7668  139.9705  166.3540 N.pl3   1  UNL1       -0.3040
      8 C         142.7071  141.4614  166.5081 C.3     1  UNL1        0.1123
      9 C         142.5256  142.0682  167.8679 C.3     1  UNL1        0.1149
     10 N         142.4037  141.1841  169.0734 N.am    1  UNL1       -0.2750
     11 C         142.2222  141.7909  170.4332 C.2     1  UNL1        0.2398
     12 O         142.1003  140.9069  171.6389 O.2     1  UNL1       -0.2734
     13 C         142.4634  139.6933  168.9194 C.3     1  UNL1        0.1149
     14 C         142.6449  139.0864  167.5597 C.3     1  UNL1        0.1123
     15 C         142.1625  143.2818  170.5873 C.3     1  UNL1        0.1286
     16 C         140.9349  144.0312  170.1615 C.3     1  UNL1        0.0267
     17 N         143.3304  144.0232  171.1671 N.3     1  UNL1       -0.3150
     18 H         143.1186  145.0205  171.1979 H       1  UNL1        0.1192
     19 H         144.1541  143.8684  170.5857 H       1  UNL1        0.1192
     20 C         139.4692  137.6594  162.5641 C.3     1  UNL1        0.2525
     21 O         140.8887  137.2160  162.3684 O.3     1  UNL1       -0.4701
     22 N         143.4928  137.5434  160.9151 N.pl3   1  UNL1       -0.2802
     23 H         143.8474  136.6292  160.8274 H       1  UNL1        0.1552
     24 C         143.1339  138.3295  159.6890 C.ar    1  UNL1        0.2208
     25 N         142.9234  137.6251  158.3815 N.ar    1  UNL1       -0.2111
     26 C         142.5646  138.4112  157.1554 C.ar    1  UNL1        0.1147
     27 C         142.4163  139.9016  157.2368 C.ar    1  UNL1        0.0960
     28 CL        142.0575  140.6877  156.0107 Cl      1  UNL1       -0.0790
     29 C         142.6269  140.6060  158.5444 C.ar    1  UNL1        0.1138
     30 N         142.9857  139.8199  159.7704 N.ar    1  UNL1       -0.2111
     31 C         142.4786  142.0965  158.6257 C.ar    1  UNL1        0.1031
     32 C         143.2511  143.1042  157.8272 C.ar    1  UNL1        0.1196
     33 N         142.7817  144.4714  158.2279 N.ar    1  UNL1       -0.2248
     34 C         141.7191  144.3085  159.2741 C.ar    1  UNL1        0.1479
     35 C         140.8980  145.3072  160.0345 C.ar    1  UNL1        0.0374
     36 C         139.8894  144.8380  161.0408 C.ar    1  UNL1        0.0046
     37 C         139.7021  143.3702  161.2867 C.ar    1  UNL1        0.0191
     38 C         140.5233  142.3716  160.5262 C.ar    1  UNL1        0.0815
     39 N         141.5318  142.8407  159.5199 N.ar    1  UNL1       -0.2874
@<TRIPOS>BOND
     1    20    21    1
     2    21     1    1
     3     1     2   ar
     4     2     3   ar
     5     3     7    1
     6     7     8    1
     7     8     9    1
     8     9    10    1
     9    10    11   am
    10    11    12    2
    11    11    15    1
    12    15    16    1
    13    15    17    1
    14    10    13    1
    15    13    14    1
    16     3     4   ar
    17     4     5   ar
    18     5     6   ar
    19     6    22    1
    20    22    24    1
    21    24    25   ar
    22    25    26   ar
    23    26    27   ar
    24    27    28    1
    25    27    29   ar
    26    29    31    1
    27    31    32   ar
    28    32    33   ar
    29    33    34   ar
    30    34    35   ar
    31    35    36   ar
    32    36    37   ar
    33    37    38   ar
    34    38    39   ar
    35    29    30   ar
    36     6     1   ar
    37    30    24   ar
    38    14     7    1
    39    39    31   ar
    40    39    34   ar
    41    17    18    1
    42    17    19    1
    43    22    23    1
@<TRIPOS>MOLECULE
*****
 39 43 0 0 0
SMALL
GASTEIGER

@<TRIPOS>ATOM
      1 C         140.3141  144.2931  162.6599 C.ar    1  UNL1        0.1533
      2 C         140.4208  143.4591  163.9022 C.ar    1  UNL1        0.0527
      3 C         141.7698  143.0779  164.4360 C.ar    1  UNL1        0.0511
      4 C         143.0120  143.5306  163.7275 C.ar    1  UNL1        0.0160
      5 C         142.9053  144.3645  162.4853 C.ar    1  UNL1        0.0190
      6 C         141.5563  144.7457  161.9514 C.ar    1  UNL1        0.0850
      7 N         141.8765  142.2440  165.6782 N.pl3   1  UNL1       -0.3040
      8 C         141.1397  142.6506  166.9199 C.3     1  UNL1        0.1123
      9 C         141.2463  141.8167  168.1623 C.3     1  UNL1        0.1149
     10 N         142.0897  140.5763  168.1628 N.am    1  UNL1       -0.2750
     11 C         142.1964  139.7424  169.4051 C.2     1  UNL1        0.2398
     12 O         143.0399  138.5020  169.4057 O.2     1  UNL1       -0.2734
     13 C         142.8265  140.1698  166.9211 C.3     1  UNL1        0.1149
     14 C         142.7199  141.0036  165.6788 C.3     1  UNL1        0.1123
     15 C         141.4596  140.1489  170.6468 C.3     1  UNL1        0.1286
     16 C         139.9798  139.9258  170.7478 C.3     1  UNL1        0.0267
     17 N         142.2027  140.7786  171.7876 N.3     1  UNL1       -0.3150
     18 H         141.5506  140.9892  172.5432 H       1  UNL1        0.1192
     19 H         142.6454  141.6410  171.4703 H       1  UNL1        0.1192
     20 C         137.7228  144.2201  162.8336 C.3     1  UNL1        0.2525
     21 O         138.9651  144.6743  162.1262 O.3     1  UNL1       -0.4701
     22 N         141.4496  145.5796  160.7092 N.pl3   1  UNL1       -0.2802
     23 H         141.3772  146.5590  160.7785 H       1  UNL1        0.1552
     24 C         141.4532  144.9214  159.3613 C.ar    1  UNL1        0.2208
     25 N         142.7068  144.2818  158.8424 N.ar    1  UNL1       -0.2111
     26 C         142.7104  143.6236  157.4946 C.ar    1  UNL1        0.1147
     27 C         141.4604  143.6049  156.6657 C.ar    1  UNL1        0.0960
     28 CL        141.4640  142.9467  155.3178 Cl      1  UNL1       -0.0790
     29 C         140.2067  144.2446  157.1846 C.ar    1  UNL1        0.1138
     30 N         140.2032  144.9028  158.5324 N.ar    1  UNL1       -0.2111
     31 C         138.9567  144.2260  156.3557 C.ar    1  UNL1        0.1031
     32 C         138.4795  145.3265  155.4550 C.ar    1  UNL1        0.1196
     33 N         137.1923  144.8842  154.8246 N.ar    1  UNL1       -0.2248
     34 C         136.8739  143.5104  155.3357 C.ar    1  UNL1        0.1479
     35 C         135.7319  142.5773  155.0617 C.ar    1  UNL1        0.0374
     36 C         135.6803  141.2374  155.7339 C.ar    1  UNL1        0.0046
     37 C         136.7708  140.8306  156.6802 C.ar    1  UNL1        0.0191
     38 C         137.9128  141.7636  156.9542 C.ar    1  UNL1        0.0815
     39 N         137.9643  143.1035  156.2820 N.ar    1  UNL1       -0.2874
@<TRIPOS>BOND
     1    20    21    1
     2    21     1    1
     3     1     2   ar
     4     2     3   ar
     5     3     7    1
     6     7     8    1
     7     8     9    1
     8     9    10    1
     9    10    11   am
    10    11    12    2
    11    11    15    1
    12    15    16    1
    13    15    17    1
    14    10    13    1
    15    13    14    1
    16     3     4   ar
    17     4     5   ar
    18     5     6   ar
    19     6    22    1
    20    22    24    1
    21    24    25   ar
    22    25    26   ar
    23    26    27   ar
    24    27    28    1
    25    27    29   ar
    26    29    31    1
    27    31    32   ar
    28    32    33   ar
    29    33    34   ar
    30    34    35   ar
    31    35    36   ar
    32    36    37   ar
    33    37    38   ar
    34    38    39   ar
    35    29    30   ar
    36     6     1   ar
    37    30    24   ar
    38    14     7    1
    39    39    31   ar
    40    39    34   ar
    41    17    18    1
    42    17    19    1
    43    22    23    1
@<TRIPOS>MOLECULE
*****
 39 43 0 0 0
SMALL
GASTEIGER

@<TRIPOS>ATOM
      1 C         143.9640  140.4892  161.7226 C.ar    1  UNL1        0.1533
      2 C         143.7181  140.8826  163.1492 C.ar    1  UNL1        0.0527
      3 C         143.1917  139.8728  164.1256 C.ar    1  UNL1        0.0511
      4 C         142.9112  138.4697  163.6755 C.ar    1  UNL1        0.0160
      5 C         143.1570  138.0764  162.2490 C.ar    1  UNL1        0.0190
      6 C         143.6834  139.0861  161.2726 C.ar    1  UNL1        0.0850
      7 N         142.9459  140.2662  165.5520 N.pl3   1  UNL1       -0.3040
      8 C         142.8763  141.7165  165.9286 C.3     1  UNL1        0.1123
      9 C         142.6305  142.1101  167.3551 C.3     1  UNL1        0.1149
     10 N         142.4543  141.0533  168.4048 N.am    1  UNL1       -0.2750
     11 C         142.2085  141.4468  169.8314 C.2     1  UNL1        0.2398
     12 O         142.0323  140.3900  170.8812 O.2     1  UNL1       -0.2734
     13 C         142.5239  139.6030  168.0283 C.3     1  UNL1        0.1149
     14 C         142.7697  139.2095  166.6018 C.3     1  UNL1        0.1123
     15 C         142.1389  142.8971  170.2079 C.3     1  UNL1        0.1286
     16 C         140.8989  143.6890  169.9161 C.3     1  UNL1        0.0267
     17 N         143.3093  143.5554  170.8763 N.3     1  UNL1       -0.3150
     18 H         143.0899  144.5346  171.0592 H       1  UNL1        0.1192
     19 H         144.1253  143.4979  170.2671 H       1  UNL1        0.1192
     20 C         144.5185  142.9531  161.1130 C.3     1  UNL1        0.2525
     21 O         144.4904  141.4989  160.7462 O.3     1  UNL1       -0.4701
     22 N         143.9292  138.6926  159.8461 N.pl3   1  UNL1       -0.2802
     23 H         144.8484  138.6645  159.4947 H       1  UNL1        0.1552
     24 C         142.7746  138.3420  158.9551 C.ar    1  UNL1        0.2208
     25 N         141.4087  138.8886  159.2475 N.ar    1  UNL1       -0.2111
     26 C         140.2541  138.5380  158.3566 C.ar    1  UNL1        0.1147
     27 C         140.4653  137.6407  157.1732 C.ar    1  UNL1        0.0960
     28 CL        139.3107  137.2901  156.2822 Cl      1  UNL1       -0.0790
     29 C         141.8313  137.0941  156.8808 C.ar    1  UNL1        0.1138
     30 N         142.9859  137.4448  157.7718 N.ar    1  UNL1       -0.2111
     31 C         142.0426  136.1969  155.6974 C.ar    1  UNL1        0.1031
     32 C         141.9122  136.5928  154.2564 C.ar    1  UNL1        0.1196
     33 N         142.2104  135.3868  153.4157 N.ar    1  UNL1       -0.2248
     34 C         142.5251  134.2457  154.3371 C.ar    1  UNL1        0.1479
     35 C         142.8927  132.8154  154.0742 C.ar    1  UNL1        0.0374
     36 C         143.1566  131.8859  155.2214 C.ar    1  UNL1        0.0046
     37 C         143.0529  132.3866  156.6316 C.ar    1  UNL1        0.0191
     38 C         142.6853  133.8168  156.8945 C.ar    1  UNL1        0.0815
     39 N         142.4214  134.7464  155.7472 N.ar    1  UNL1       -0.2874
@<TRIPOS>BOND
     1    20    21    1
     2    21     1    1
     3     1     2   ar
     4     2     3   ar
     5     3     7    1
     6     7     8    1
     7     8     9    1
     8     9    10    1
     9    10    11   am
    10    11    12    2
    11    11    15    1
    12    15    16    1
    13    15    17    1
    14    10    13    1
    15    13    14    1
    16     3     4   ar
    17     4     5   ar
    18     5     6   ar
    19     6    22    1
    20    22    24    1
    21    24    25   ar
    22    25    26   ar
    23    26    27   ar
    24    27    28    1
    25    27    29   ar
    26    29    31    1
    27    31    32   ar
    28    32    33   ar
    29    33    34   ar
    30    34    35   ar
    31    35    36   ar
    32    36    37   ar
    33    37    38   ar
    34    38    39   ar
    35    29    30   ar
    36     6     1   ar
    37    30    24   ar
    38    14     7    1
    39    39    31   ar
    40    39    34   ar
    41    17    18    1
    42    17    19    1
    43    22    23    1
@<TRIPOS>MOLECULE
*****
 39 43 0 0 0
SMALL
GASTEIGER

@<TRIPOS>ATOM
      1 C         142.2145  144.1887  162.4229 C.ar    1  UNL1        0.1533
      2 C         142.3988  143.3337  163.6416 C.ar    1  UNL1        0.0527
      3 C         141.3313  143.2884  164.6944 C.ar    1  UNL1        0.0511
      4 C         140.0795  144.0980  164.5285 C.ar    1  UNL1        0.0160
      5 C         139.8953  144.9529  163.3099 C.ar    1  UNL1        0.0190
      6 C         140.9628  144.9983  162.2570 C.ar    1  UNL1        0.0850
      7 N         141.5156  142.4335  165.9130 N.pl3   1  UNL1       -0.3040
      8 C         140.7568  142.7444  167.1690 C.3     1  UNL1        0.1123
      9 C         140.9411  141.8895  168.3878 C.3     1  UNL1        0.1149
     10 N         141.8842  140.7237  168.3504 N.am    1  UNL1       -0.2750
     11 C         142.0686  139.8687  169.5690 C.2     1  UNL1        0.2398
     12 O         143.0116  138.7028  169.5317 O.2     1  UNL1       -0.2734
     13 C         142.6430  140.4127  167.0943 C.3     1  UNL1        0.1149
     14 C         142.4587  141.2676  165.8757 C.3     1  UNL1        0.1123
     15 C         141.3098  140.1796  170.8250 C.3     1  UNL1        0.1286
     16 C         139.8565  139.8235  170.9310 C.3     1  UNL1        0.0267
     17 N         142.0042  140.8468  171.9751 N.3     1  UNL1       -0.3150
     18 H         141.3428  140.9812  172.7399 H       1  UNL1        0.1192
     19 H         142.3657  141.7521  171.6751 H       1  UNL1        0.1192
     20 C         143.5891  143.0094  160.5601 C.3     1  UNL1        0.2525
     21 O         143.2821  144.2340  161.3701 O.3     1  UNL1       -0.4701
     22 N         140.7784  145.8532  161.0384 N.pl3   1  UNL1       -0.2802
     23 H         140.6636  146.8264  161.1327 H       1  UNL1        0.1552
     24 C         140.7690  145.2254  159.6761 C.ar    1  UNL1        0.2208
     25 N         141.7155  145.7124  158.6194 N.ar    1  UNL1       -0.2111
     26 C         141.7061  145.0846  157.2571 C.ar    1  UNL1        0.1147
     27 C         140.7501  143.9698  156.9516 C.ar    1  UNL1        0.0960
     28 CL        140.7407  143.3420  155.5894 Cl      1  UNL1       -0.0790
     29 C         139.8035  143.4828  158.0085 C.ar    1  UNL1        0.1138
     30 N         139.8130  144.1106  159.3707 N.ar    1  UNL1       -0.2111
     31 C         138.8476  142.3680  157.7030 C.ar    1  UNL1        0.1031
     32 C         138.8247  141.0207  158.3621 C.ar    1  UNL1        0.1196
     33 N         137.7096  140.2248  157.7513 N.ar    1  UNL1       -0.2248
     34 C         137.0434  141.0802  156.7146 C.ar    1  UNL1        0.1479
     35 C         135.8872  140.8240  155.7940 C.ar    1  UNL1        0.0374
     36 C         135.4343  141.8924  154.8436 C.ar    1  UNL1        0.0046
     37 C         136.1376  143.2170  154.8138 C.ar    1  UNL1        0.0191
     38 C         137.2938  143.4731  155.7344 C.ar    1  UNL1        0.0815
     39 N         137.7467  142.4047  156.6848 N.ar    1  UNL1       -0.2874
@<TRIPOS>BOND
     1    20    21    1
     2    21     1    1
     3     1     2   ar
     4     2     3   ar
     5     3     7    1
     6     7     8    1
     7     8     9    1
     8     9    10    1
     9    10    11   am
    10    11    12    2
    11    11    15    1
    12    15    16    1
    13    15    17    1
    14    10    13    1
    15    13    14    1
    16     3     4   ar
    17     4     5   ar
    18     5     6   ar
    19     6    22    1
    20    22    24    1
    21    24    25   ar
    22    25    26   ar
    23    26    27   ar
    24    27    28    1
    25    27    29   ar
    26    29    31    1
    27    31    32   ar
    28    32    33   ar
    29    33    34   ar
    30    34    35   ar
    31    35    36   ar
    32    36    37   ar
    33    37    38   ar
    34    38    39   ar
    35    29    30   ar
    36     6     1   ar
    37    30    24   ar
    38    14     7    1
    39    39    31   ar
    40    39    34   ar
    41    17    18    1
    42    17    19    1
    43    22    23    1
@<TRIPOS>MOLECULE
*****
 39 43 0 0 0
SMALL
GASTEIGER

@<TRIPOS>ATOM
      1 C         141.2927  138.0962  162.9932 C.ar    1  UNL1        0.1533
      2 C         141.1624  138.8114  164.3054 C.ar    1  UNL1        0.0527
      3 C         142.3120  139.6130  164.8400 C.ar    1  UNL1        0.0511
      4 C         143.5919  139.6995  164.0626 C.ar    1  UNL1        0.0160
      5 C         143.7221  138.9844  162.7504 C.ar    1  UNL1        0.0190
      6 C         142.5725  138.1828  162.2157 C.ar    1  UNL1        0.0850
      7 N         142.1817  140.3280  166.1521 N.pl3   1  UNL1       -0.3040
      8 C         141.0824  139.9564  167.1027 C.3     1  UNL1        0.1123
      9 C         140.9520  140.6715  168.4150 C.3     1  UNL1        0.1149
     10 N         141.9208  141.7580  168.7764 N.am    1  UNL1       -0.2750
     11 C         141.7905  142.4731  170.0886 C.2     1  UNL1        0.2398
     12 O         142.7593  143.5597  170.4501 O.2     1  UNL1       -0.2734
     13 C         143.0201  142.1296  167.8258 C.3     1  UNL1        0.1149
     14 C         143.1505  141.4146  166.5137 C.3     1  UNL1        0.1123
     15 C         140.6913  142.1015  171.0392 C.3     1  UNL1        0.1286
     16 C         139.4146  142.8887  171.0540 C.3     1  UNL1        0.0267
     17 N         140.8688  140.9427  171.9750 N.3     1  UNL1       -0.3150
     18 H         140.0296  140.8339  172.5444 H       1  UNL1        0.1192
     19 H         141.6710  141.1149  172.5810 H       1  UNL1        0.1192
     20 C         138.7521  137.8542  162.5062 C.3     1  UNL1        0.2525
     21 O         140.1430  137.2946  162.4585 O.3     1  UNL1       -0.4701
     22 N         142.7028  137.4677  160.9036 N.pl3   1  UNL1       -0.2802
     23 H         143.0605  136.5509  160.8760 H       1  UNL1        0.1552
     24 C         142.2882  138.1494  159.6334 C.ar    1  UNL1        0.2208
     25 N         140.8529  138.5296  159.4203 N.ar    1  UNL1       -0.2111
     26 C         140.4383  139.2113  158.1502 C.ar    1  UNL1        0.1147
     27 C         141.4589  139.5129  157.0931 C.ar    1  UNL1        0.0960
     28 CL        141.0443  140.1946  155.8230 Cl      1  UNL1       -0.0790
     29 C         142.8943  139.1328  157.3063 C.ar    1  UNL1        0.1138
     30 N         143.3089  138.4511  158.5764 N.ar    1  UNL1       -0.2111
     31 C         143.9149  139.4344  156.2493 C.ar    1  UNL1        0.1031
     32 C         144.0753  138.7092  154.9460 C.ar    1  UNL1        0.1196
     33 N         145.2139  139.3408  154.2012 N.ar    1  UNL1       -0.2248
     34 C         145.7572  140.4563  155.0442 C.ar    1  UNL1        0.1479
     35 C         146.8793  141.4268  154.8227 C.ar    1  UNL1        0.0374
     36 C         147.1985  142.4551  155.8670 C.ar    1  UNL1        0.0046
     37 C         146.3957  142.5129  157.1328 C.ar    1  UNL1        0.0191
     38 C         145.2737  141.5424  157.3542 C.ar    1  UNL1        0.0815
     39 N         144.9544  140.5141  156.3099 N.ar    1  UNL1       -0.2874
@<TRIPOS>BOND
     1    20    21    1
     2    21     1    1
     3     1     2   ar
     4     2     3   ar
     5     3     7    1
     6     7     8    1
     7     8     9    1
     8     9    10    1
     9    10    11   am
    10    11    12    2
    11    11    15    1
    12    15    16    1
    13    15    17    1
    14    10    13    1
    15    13    14    1
    16     3     4   ar
    17     4     5   ar
    18     5     6   ar
    19     6    22    1
    20    22    24    1
    21    24    25   ar
    22    25    26   ar
    23    26    27   ar
    24    27    28    1
    25    27    29   ar
    26    29    31    1
    27    31    32   ar
    28    32    33   ar
    29    33    34   ar
    30    34    35   ar
    31    35    36   ar
    32    36    37   ar
    33    37    38   ar
    34    38    39   ar
    35    29    30   ar
    36     6     1   ar
    37    30    24   ar
    38    14     7    1
    39    39    31   ar
    40    39    34   ar
    41    17    18    1
    42    17    19    1
    43    22    23    1
@<TRIPOS>MOLECULE
*****
 39 43 0 0 0
SMALL
GASTEIGER

@<TRIPOS>ATOM
      1 C         139.8889  140.5687  161.6537 C.ar    1  UNL1        0.1533
      2 C         140.1967  140.6748  163.1180 C.ar    1  UNL1        0.0527
      3 C         140.6350  139.4608  163.8822 C.ar    1  UNL1        0.0511
      4 C         140.7656  138.1406  163.1822 C.ar    1  UNL1        0.0160
      5 C         140.4578  138.0345  161.7179 C.ar    1  UNL1        0.0190
      6 C         140.0195  139.2485  160.9536 C.ar    1  UNL1        0.0850
      7 N         140.9427  139.5670  165.3464 N.pl3   1  UNL1       -0.3040
      8 C         139.8989  140.0731  166.2973 C.3     1  UNL1        0.1123
      9 C         140.2066  140.1794  167.7617 C.3     1  UNL1        0.1149
     10 N         141.5580  139.7796  168.2749 N.am    1  UNL1       -0.2750
     11 C         141.8658  139.8858  169.7392 C.2     1  UNL1        0.2398
     12 O         143.2173  139.4860  170.2525 O.2     1  UNL1       -0.2734
     13 C         142.6019  139.2735  167.3240 C.3     1  UNL1        0.1149
     14 C         142.2943  139.1672  165.8597 C.3     1  UNL1        0.1123
     15 C         140.8219  140.3919  170.6901 C.3     1  UNL1        0.1286
     16 C         140.7822  141.8461  171.0556 C.3     1  UNL1        0.0267
     17 N         139.8178  139.4437  171.2755 N.3     1  UNL1       -0.3150
     18 H         139.1891  139.9545  171.8955 H       1  UNL1        0.1192
     19 H         140.3027  138.7191  171.8048 H       1  UNL1        0.1192
     20 C         138.2522  142.5624  161.3433 C.3     1  UNL1        0.2525
     21 O         139.4506  141.7827  160.8895 O.3     1  UNL1       -0.4701
     22 N         139.7118  139.1422  159.4894 N.pl3   1  UNL1       -0.2802
     23 H         138.7956  139.3016  159.1662 H       1  UNL1        0.1552
     24 C         140.7998  138.7932  158.5177 C.ar    1  UNL1        0.2208
     25 N         141.9251  139.7548  158.2746 N.ar    1  UNL1       -0.2111
     26 C         143.0132  139.4057  157.3029 C.ar    1  UNL1        0.1147
     27 C         142.9759  138.0951  156.5742 C.ar    1  UNL1        0.0960
     28 CL        144.0640  137.7460  155.6025 Cl      1  UNL1       -0.0790
     29 C         141.8506  137.1335  156.8174 C.ar    1  UNL1        0.1138
     30 N         140.7626  137.4826  157.7891 N.ar    1  UNL1       -0.2111
     31 C         141.8134  135.8228  156.0887 C.ar    1  UNL1        0.1031
     32 C         140.9677  135.5032  154.8918 C.ar    1  UNL1        0.1196
     33 N         141.2470  134.0846  154.4925 N.ar    1  UNL1       -0.2248
     34 C         142.2653  133.5274  155.4426 C.ar    1  UNL1        0.1479
     35 C         142.9190  132.1807  155.5369 C.ar    1  UNL1        0.0374
     36 C         143.9228  131.9083  156.6177 C.ar    1  UNL1        0.0046
     37 C         144.2728  132.9827  157.6042 C.ar    1  UNL1        0.0191
     38 C         143.6191  134.3294  157.5100 C.ar    1  UNL1        0.0815
     39 N         142.6153  134.6018  156.4292 N.ar    1  UNL1       -0.2874
@<TRIPOS>BOND
     1    20    21    1
     2    21     1    1
     3     1     2   ar
     4     2     3   ar
     5     3     7    1
     6     7     8    1
     7     8     9    1
     8     9    10    1
     9    10    11   am
    10    11    12    2
    11    11    15    1
    12    15    16    1
    13    15    17    1
    14    10    13    1
    15    13    14    1
    16     3     4   ar
    17     4     5   ar
    18     5     6   ar
    19     6    22    1
    20    22    24    1
    21    24    25   ar
    22    25    26   ar
    23    26    27   ar
    24    27    28    1
    25    27    29   ar
    26    29    31    1
    27    31    32   ar
    28    32    33   ar
    29    33    34   ar
    30    34    35   ar
    31    35    36   ar
    32    36    37   ar
    33    37    38   ar
    34    38    39   ar
    35    29    30   ar
    36     6     1   ar
    37    30    24   ar
    38    14     7    1
    39    39    31   ar
    40    39    34   ar
    41    17    18    1
    42    17    19    1
    43    22    23    1
@<TRIPOS>MOLECULE
*****
 39 43 0 0 0
SMALL
GASTEIGER

@<TRIPOS>ATOM
      1 C         141.3083  138.1704  162.4438 C.ar    1  UNL1        0.1533
      2 C         140.8115  138.7483  163.7359 C.ar    1  UNL1        0.0527
      3 C         141.7814  139.3418  164.7141 C.ar    1  UNL1        0.0511
      4 C         143.2482  139.3575  164.4003 C.ar    1  UNL1        0.0160
      5 C         143.7449  138.7797  163.1083 C.ar    1  UNL1        0.0190
      6 C         142.7750  138.1861  162.1300 C.ar    1  UNL1        0.0850
      7 N         141.2846  139.9196  166.0061 N.pl3   1  UNL1       -0.3040
      8 C         142.0739  140.9884  166.7023 C.3     1  UNL1        0.1123
      9 C         141.5770  141.5663  167.9943 C.3     1  UNL1        0.1149
     10 N         140.2911  141.0753  168.5901 N.am    1  UNL1       -0.2750
     11 C         139.7942  141.6531  169.8822 C.2     1  UNL1        0.2398
     12 O         138.5081  141.1621  170.4780 O.2     1  UNL1       -0.2734
     13 C         139.5018  140.0065  167.8939 C.3     1  UNL1        0.1149
     14 C         139.9986  139.4286  166.6019 C.3     1  UNL1        0.1123
     15 C         140.5834  142.7220  170.5783 C.3     1  UNL1        0.1286
     16 C         140.4643  144.1504  170.1363 C.3     1  UNL1        0.0267
     17 N         141.4918  142.3624  171.7165 N.3     1  UNL1       -0.3150
     18 H         141.9458  143.2053  172.0686 H       1  UNL1        0.1192
     19 H         142.2007  141.7051  171.3912 H       1  UNL1        0.1192
     20 C         138.9312  138.0919  161.3983 C.3     1  UNL1        0.2525
     21 O         140.3383  137.5769  161.4656 O.3     1  UNL1       -0.4701
     22 N         143.2718  137.6083  160.8380 N.pl3   1  UNL1       -0.2802
     23 H         143.7129  136.7282  160.8298 H       1  UNL1        0.1552
     24 C         143.0968  138.3714  159.5586 C.ar    1  UNL1        0.2208
     25 N         144.0296  139.4971  159.2231 N.ar    1  UNL1       -0.2111
     26 C         143.8545  140.2602  157.9437 C.ar    1  UNL1        0.1147
     27 C         142.7466  139.8977  156.9998 C.ar    1  UNL1        0.0960
     28 CL        142.5715  140.6608  155.7203 Cl      1  UNL1       -0.0790
     29 C         141.8136  138.7720  157.3353 C.ar    1  UNL1        0.1138
     30 N         141.9888  138.0089  158.6147 N.ar    1  UNL1       -0.2111
     31 C         140.7057  138.4094  156.3914 C.ar    1  UNL1        0.1031
     32 C         139.2658  138.8072  156.5276 C.ar    1  UNL1        0.1196
     33 N         138.5134  138.2291  155.3659 N.ar    1  UNL1       -0.2248
     34 C         139.4881  137.4740  154.5117 C.ar    1  UNL1        0.1479
     35 C         139.3170  136.6993  153.2388 C.ar    1  UNL1        0.0374
     36 C         140.5009  136.0361  152.5995 C.ar    1  UNL1        0.0046
     37 C         141.8558  136.1475  153.2333 C.ar    1  UNL1        0.0191
     38 C         142.0269  136.9222  154.5063 C.ar    1  UNL1        0.0815
     39 N         140.8431  137.5854  155.1455 N.ar    1  UNL1       -0.2874
@<TRIPOS>BOND
     1    20    21    1
     2    21     1    1
     3     1     2   ar
     4     2     3   ar
     5     3     7    1
     6     7     8    1
     7     8     9    1
     8     9    10    1
     9    10    11   am
    10    11    12    2
    11    11    15    1
    12    15    16    1
    13    15    17    1
    14    10    13    1
    15    13    14    1
    16     3     4   ar
    17     4     5   ar
    18     5     6   ar
    19     6    22    1
    20    22    24    1
    21    24    25   ar
    22    25    26   ar
    23    26    27   ar
    24    27    28    1
    25    27    29   ar
    26    29    31    1
    27    31    32   ar
    28    32    33   ar
    29    33    34   ar
    30    34    35   ar
    31    35    36   ar
    32    36    37   ar
    33    37    38   ar
    34    38    39   ar
    35    29    30   ar
    36     6     1   ar
    37    30    24   ar
    38    14     7    1
    39    39    31   ar
    40    39    34   ar
    41    17    18    1
    42    17    19    1
    43    22    23    1
@<TRIPOS>MOLECULE
*****
 39 43 0 0 0
SMALL
GASTEIGER

@<TRIPOS>ATOM
      1 C         142.5735  144.1773  162.3858 C.ar    1  UNL1        0.1533
      2 C         141.7092  144.5422  161.2153 C.ar    1  UNL1        0.0527
      3 C         142.0302  144.0084  159.8507 C.ar    1  UNL1        0.0511
      4 C         143.2154  143.1097  159.6566 C.ar    1  UNL1        0.0160
      5 C         144.0796  142.7449  160.8271 C.ar    1  UNL1        0.0190
      6 C         143.7587  143.2786  162.1917 C.ar    1  UNL1        0.0850
      7 N         141.1659  144.3733  158.6804 N.pl3   1  UNL1       -0.3040
      8 C         140.5566  143.2957  157.8333 C.3     1  UNL1        0.1123
      9 C         139.6922  143.6606  156.6628 C.3     1  UNL1        0.1149
     10 N         139.4373  145.1029  156.3395 N.am    1  UNL1       -0.2750
     11 C         138.5730  145.4679  155.1691 C.2     1  UNL1        0.2398
     12 O         138.3181  146.9103  154.8458 O.2     1  UNL1       -0.2734
     13 C         140.0467  146.1805  157.1866 C.3     1  UNL1        0.1149
     14 C         140.9110  145.8157  158.3570 C.3     1  UNL1        0.1123
     15 C         137.9637  144.3903  154.3220 C.3     1  UNL1        0.1286
     16 C         136.7164  143.6931  154.7781 C.3     1  UNL1        0.0267
     17 N         138.6016  144.0100  153.0188 N.3     1  UNL1       -0.3150
     18 H         138.0589  143.2669  152.5787 H       1  UNL1        0.1192
     19 H         139.5523  143.6819  153.1886 H       1  UNL1        0.1192
     20 C         140.9589  144.3430  164.4145 C.3     1  UNL1        0.2525
     21 O         142.2525  144.7110  163.7504 O.3     1  UNL1       -0.4701
     22 N         144.6230  142.9137  163.3621 N.pl3   1  UNL1       -0.2802
     23 H         145.3590  143.5080  163.6347 H       1  UNL1        0.1552
     24 C         144.3659  141.6434  164.1171 C.ar    1  UNL1        0.2208
     25 N         145.3205  140.4927  163.9962 N.ar    1  UNL1       -0.2111
     26 C         145.0634  139.2224  164.7513 C.ar    1  UNL1        0.1147
     27 C         143.8517  139.1027  165.6273 C.ar    1  UNL1        0.0960
     28 CL        143.5946  137.8324  166.3823 Cl      1  UNL1       -0.0790
     29 C         142.8969  140.2534  165.7482 C.ar    1  UNL1        0.1138
     30 N         143.1541  141.5237  164.9931 N.ar    1  UNL1       -0.2111
     31 C         141.6852  140.1337  166.6241 C.ar    1  UNL1        0.1031
     32 C         140.3051  139.7567  166.1733 C.ar    1  UNL1        0.1196
     33 N         139.4078  139.7600  167.3752 N.ar    1  UNL1       -0.2248
     34 C         140.2333  140.1391  168.5690 C.ar    1  UNL1        0.1479
     35 C         139.8851  140.3037  170.0186 C.ar    1  UNL1        0.0374
     36 C         140.9445  140.6994  171.0041 C.ar    1  UNL1        0.0046
     37 C         142.3520  140.9303  170.5399 C.ar    1  UNL1        0.0191
     38 C         142.7002  140.7657  169.0902 C.ar    1  UNL1        0.0815
     39 N         141.6408  140.3700  168.1047 N.ar    1  UNL1       -0.2874
@<TRIPOS>BOND
     1    20    21    1
     2    21     1    1
     3     1     2   ar
     4     2     3   ar
     5     3     7    1
     6     7     8    1
     7     8     9    1
     8     9    10    1
     9    10    11   am
    10    11    12    2
    11    11    15    1
    12    15    16    1
    13    15    17    1
    14    10    13    1
    15    13    14    1
    16     3     4   ar
    17     4     5   ar
    18     5     6   ar
    19     6    22    1
    20    22    24    1
    21    24    25   ar
    22    25    26   ar
    23    26    27   ar
    24    27    28    1
    25    27    29   ar
    26    29    31    1
    27    31    32   ar
    28    32    33   ar
    29    33    34   ar
    30    34    35   ar
    31    35    36   ar
    32    36    37   ar
    33    37    38   ar
    34    38    39   ar
    35    29    30   ar
    36     6     1   ar
    37    30    24   ar
    38    14     7    1
    39    39    31   ar
    40    39    34   ar
    41    17    18    1
    42    17    19    1
    43    22    23    1
