@<TRIPOS>MOLECULE
*****
 34 37 0 0 0
SMALL
GASTEIGER

@<TRIPOS>ATOM
      1 C         137.9823  139.5456  161.8168 C.3     1  UNL1        0.2722
      2 C         138.3211  140.2343  160.5280 C.2     1  UNL1        0.2701
      3 O         137.4853  139.9926  159.3061 O.2     1  UNL1       -0.2707
      4 N         139.4958  141.1646  160.4611 N.am    1  UNL1       -0.2663
      5 H         140.0444  141.3232  161.2631 H       1  UNL1        0.1564
      6 C         139.8347  141.8533  159.1724 C.ar    1  UNL1        0.1343
      7 C         139.3309  143.2414  158.9088 C.ar    1  UNL1        0.0354
      8 C         139.6698  143.9301  157.6201 C.ar    1  UNL1        0.0158
      9 C         140.5125  143.2308  156.5949 C.ar    1  UNL1        0.0769
     10 CL        140.8514  143.9195  155.3062 Cl      1  UNL1       -0.0806
     11 C         141.0163  141.8427  156.8586 C.ar    1  UNL1        0.1116
     12 N         140.6774  141.1540  158.1474 N.ar    1  UNL1       -0.2281
     13 C         138.1165  138.0558  161.9289 C.3     1  UNL1        0.1950
     14 O         138.8139  137.4525  163.1120 O.3     1  UNL1       -0.3519
     15 C         140.9775  137.2917  164.5413 C.3     1  UNL1        0.0320
     16 C         140.3083  137.5262  163.2196 C.3     1  UNL1        0.1156
     17 C         141.1333  137.8344  162.0054 C.3     1  UNL1        0.0320
     18 O         137.5092  140.3466  162.9934 O.3     1  UNL1       -0.4517
     19 C         138.5049  140.9482  163.9403 C.ar    1  UNL1        0.2312
     20 N         139.3177  142.1364  163.5189 N.ar    1  UNL1       -0.1892
     21 C         140.3134  142.7379  164.4658 C.ar    1  UNL1        0.2029
     22 N         140.4964  142.1513  165.8341 N.ar    1  UNL1       -0.2045
     23 C         139.6836  140.9631  166.2556 C.ar    1  UNL1        0.1732
     24 C         138.6879  140.3616  165.3087 C.ar    1  UNL1        0.1099
     25 C         138.0343  139.2011  165.9988 C.ar    1  UNL1        0.1283
     26 N         138.6262  139.0854  167.3722 N.ar    1  UNL1       -0.1606
     27 N         139.6455  140.1744  167.5309 N.ar    1  UNL1       -0.1936
     28 C         140.4801  140.4299  168.7508 C.ar    1  UNL1        0.1759
     29 N         139.8842  141.1348  169.9331 N.ar    1  UNL1       -0.2242
     30 C         140.7189  141.3902  171.1530 C.ar    1  UNL1        0.1006
     31 C         142.1495  140.9408  171.1906 C.ar    1  UNL1        0.0217
     32 C         142.7453  140.2359  170.0082 C.ar    1  UNL1        0.0161
     33 C         141.9107  139.9805  168.7883 C.ar    1  UNL1        0.0935
     34 CL        142.5067  139.2755  167.6060 Cl      1  UNL1       -0.0790
@<TRIPOS>BOND
     1    15    16    1
     2    16    17    1
     3    16    14    1
     4    14    13    1
     5     1    13    1
     6     1    18    1
     7    18    19    1
     8    19    20   ar
     9    20    21   ar
    10    21    22   ar
    11    22    23   ar
    12    23    24   ar
    13    24    25   ar
    14    25    26   ar
    15    26    27   ar
    16    27    28    1
    17    28    29   ar
    18    29    30   ar
    19    30    31   ar
    20    31    32   ar
    21    32    33   ar
    22    33    34    1
    23     1     2    1
    24     2     3    2
    25     2     4   am
    26     4     6    1
    27     6     7   ar
    28     7     8   ar
    29     8     9   ar
    30     9    10    1
    31     9    11   ar
    32    11    12   ar
    33    24    19   ar
    34    33    28   ar
    35    12     6   ar
    36    27    23   ar
    37     4     5    1
@<TRIPOS>MOLECULE
*****
 34 37 0 0 0
SMALL
GASTEIGER

@<TRIPOS>ATOM
      1 C         137.8060  140.4486  161.7091 C.3     1  UNL1        0.2722
      2 C         138.5011  141.3571  160.7388 C.2     1  UNL1        0.2701
      3 O         138.1344  141.3230  159.2847 O.2     1  UNL1       -0.2707
      4 N         139.5630  142.2996  161.2226 N.am    1  UNL1       -0.2663
      5 H         139.8037  142.3220  162.1770 H       1  UNL1        0.1564
      6 C         140.2582  143.2080  160.2523 C.ar    1  UNL1        0.1343
      7 C         141.5013  142.7463  159.5512 C.ar    1  UNL1        0.0354
      8 C         142.1964  143.6547  158.5809 C.ar    1  UNL1        0.0158
      9 C         141.6485  145.0250  158.3118 C.ar    1  UNL1        0.0769
     10 CL        142.3437  145.9334  157.3415 Cl      1  UNL1       -0.0806
     11 C         140.4055  145.4867  159.0129 C.ar    1  UNL1        0.1116
     12 N         139.7103  144.5782  159.9832 N.ar    1  UNL1       -0.2281
     13 C         137.6990  138.9810  161.4180 C.3     1  UNL1        0.1950
     14 O         138.4346  137.9914  162.2721 O.3     1  UNL1       -0.3519
     15 C         140.7047  137.4683  163.4226 C.3     1  UNL1        0.0320
     16 C         139.9322  137.9225  162.2197 C.3     1  UNL1        0.1156
     17 C         140.6572  138.3077  160.9643 C.3     1  UNL1        0.0320
     18 O         137.2177  141.0078  162.9706 O.3     1  UNL1       -0.4517
     19 C         138.1151  141.5853  164.0248 C.ar    1  UNL1        0.2312
     20 N         138.5765  143.0087  163.9195 N.ar    1  UNL1       -0.1892
     21 C         139.4737  143.5861  164.9737 C.ar    1  UNL1        0.2029
     22 N         139.9096  142.7403  166.1332 N.ar    1  UNL1       -0.2045
     23 C         139.4482  141.3169  166.2386 C.ar    1  UNL1        0.1732
     24 C         138.5509  140.7395  165.1844 C.ar    1  UNL1        0.1099
     25 C         138.2596  139.3149  165.5531 C.ar    1  UNL1        0.1283
     26 N         138.9768  139.0120  166.8352 N.ar    1  UNL1       -0.1606
     27 N         139.7114  140.2493  167.2588 N.ar    1  UNL1       -0.1936
     28 C         140.5602  140.3937  168.4871 C.ar    1  UNL1        0.1759
     29 N         142.0495  140.5191  168.3592 N.ar    1  UNL1       -0.2242
     30 C         142.8983  140.6635  169.5874 C.ar    1  UNL1        0.1006
     31 C         142.2579  140.6825  170.9437 C.ar    1  UNL1        0.0217
     32 C         140.7686  140.5572  171.0716 C.ar    1  UNL1        0.0161
     33 C         139.9198  140.4128  169.8434 C.ar    1  UNL1        0.0935
     34 CL        138.4306  140.2874  169.9714 Cl      1  UNL1       -0.0790
@<TRIPOS>BOND
     1    15    16    1
     2    16    17    1
     3    16    14    1
     4    14    13    1
     5     1    13    1
     6     1    18    1
     7    18    19    1
     8    19    20   ar
     9    20    21   ar
    10    21    22   ar
    11    22    23   ar
    12    23    24   ar
    13    24    25   ar
    14    25    26   ar
    15    26    27   ar
    16    27    28    1
    17    28    29   ar
    18    29    30   ar
    19    30    31   ar
    20    31    32   ar
    21    32    33   ar
    22    33    34    1
    23     1     2    1
    24     2     3    2
    25     2     4   am
    26     4     6    1
    27     6     7   ar
    28     7     8   ar
    29     8     9   ar
    30     9    10    1
    31     9    11   ar
    32    11    12   ar
    33    24    19   ar
    34    33    28   ar
    35    12     6   ar
    36    27    23   ar
    37     4     5    1
@<TRIPOS>MOLECULE
*****
 34 37 0 0 0
SMALL
GASTEIGER

@<TRIPOS>ATOM
      1 C         141.4977  143.9562  161.7180 C.3     1  UNL1        0.2722
      2 C         141.2379  144.1515  160.2536 C.2     1  UNL1        0.2701
      3 O         140.6171  143.0487  159.4484 O.2     1  UNL1       -0.2707
      4 N         141.5991  145.4496  159.5944 N.am    1  UNL1       -0.2663
      5 H         142.0066  146.1734  160.1229 H       1  UNL1        0.1564
      6 C         141.3394  145.6449  158.1300 C.ar    1  UNL1        0.1343
      7 C         142.3233  145.1348  157.1192 C.ar    1  UNL1        0.0354
      8 C         142.0636  145.3301  155.6549 C.ar    1  UNL1        0.0158
      9 C         140.8199  146.0356  155.2013 C.ar    1  UNL1        0.0769
     10 CL        140.5602  146.2309  153.7369 Cl      1  UNL1       -0.0806
     11 C         139.8360  146.5456  156.2121 C.ar    1  UNL1        0.1116
     12 N         140.0957  146.3503  157.6765 N.ar    1  UNL1       -0.2281
     13 C         141.2764  145.0886  162.6765 C.3     1  UNL1        0.1950
     14 O         139.8854  145.5785  162.9503 O.3     1  UNL1       -0.3519
     15 C         137.8317  143.9874  162.9761 C.3     1  UNL1        0.0320
     16 C         138.9212  144.7140  163.7074 C.3     1  UNL1        0.1156
     17 C         139.0467  144.5762  165.1958 C.3     1  UNL1        0.0320
     18 O         141.9787  142.6285  162.2238 O.3     1  UNL1       -0.4517
     19 C         141.3861  142.0415  163.4706 C.ar    1  UNL1        0.2312
     20 N         140.0875  141.2938  163.4038 N.ar    1  UNL1       -0.1892
     21 C         139.4950  140.7069  164.6505 C.ar    1  UNL1        0.2029
     22 N         140.2011  140.8677  165.9641 N.ar    1  UNL1       -0.2045
     23 C         141.4997  141.6154  166.0310 C.ar    1  UNL1        0.1732
     24 C         142.0922  142.2023  164.7842 C.ar    1  UNL1        0.1099
     25 C         143.3762  142.8826  165.1569 C.ar    1  UNL1        0.1283
     26 N         143.5771  142.7160  166.6340 N.ar    1  UNL1       -0.1606
     27 N         142.4174  141.9329  167.1742 N.ar    1  UNL1       -0.1936
     28 C         142.2115  141.5367  168.6062 C.ar    1  UNL1        0.1759
     29 N         143.0131  140.4148  169.1968 N.ar    1  UNL1       -0.2242
     30 C         142.8072  140.0187  170.6288 C.ar    1  UNL1        0.1006
     31 C         141.7997  140.7445  171.4703 C.ar    1  UNL1        0.0217
     32 C         140.9982  141.8664  170.8798 C.ar    1  UNL1        0.0161
     33 C         141.2041  142.2625  169.4478 C.ar    1  UNL1        0.0935
     34 CL        140.4024  143.3845  168.8573 Cl      1  UNL1       -0.0790
@<TRIPOS>BOND
     1    15    16    1
     2    16    17    1
     3    16    14    1
     4    14    13    1
     5     1    13    1
     6     1    18    1
     7    18    19    1
     8    19    20   ar
     9    20    21   ar
    10    21    22   ar
    11    22    23   ar
    12    23    24   ar
    13    24    25   ar
    14    25    26   ar
    15    26    27   ar
    16    27    28    1
    17    28    29   ar
    18    29    30   ar
    19    30    31   ar
    20    31    32   ar
    21    32    33   ar
    22    33    34    1
    23     1     2    1
    24     2     3    2
    25     2     4   am
    26     4     6    1
    27     6     7   ar
    28     7     8   ar
    29     8     9   ar
    30     9    10    1
    31     9    11   ar
    32    11    12   ar
    33    24    19   ar
    34    33    28   ar
    35    12     6   ar
    36    27    23   ar
    37     4     5    1
@<TRIPOS>MOLECULE
*****
 34 37 0 0 0
SMALL
GASTEIGER

@<TRIPOS>ATOM
      1 C         139.3142  138.0125  161.6259 C.3     1  UNL1        0.2722
      2 C         140.0552  138.3982  160.3800 C.2     1  UNL1        0.2701
      3 O         139.2962  138.7839  159.1450 O.2     1  UNL1       -0.2707
      4 N         141.5551  138.3982  160.3691 N.am    1  UNL1       -0.2663
      5 H         142.0533  138.1451  161.1797 H       1  UNL1        0.1564
      6 C         142.2962  138.7838  159.1233 C.ar    1  UNL1        0.1343
      7 C         142.9924  140.1101  159.0450 C.ar    1  UNL1        0.0354
      8 C         143.7335  140.4958  157.7992 C.ar    1  UNL1        0.0158
      9 C         143.7782  139.5551  156.6316 C.ar    1  UNL1        0.0769
     10 CL        144.5193  139.9407  155.3858 Cl      1  UNL1       -0.0806
     11 C         143.0820  138.2288  156.7099 C.ar    1  UNL1        0.1116
     12 N         142.3409  137.8432  157.9558 N.ar    1  UNL1       -0.2281
     13 C         137.8601  138.3519  161.7691 C.3     1  UNL1        0.1950
     14 O         137.3358  139.6487  161.2276 O.3     1  UNL1       -0.3519
     15 C         138.4627  141.9811  161.0273 C.3     1  UNL1        0.0320
     16 C         137.7555  140.9466  161.8517 C.3     1  UNL1        0.1156
     17 C         137.4681  141.2099  163.3001 C.3     1  UNL1        0.0320
     18 O         140.0273  137.2875  162.7285 O.3     1  UNL1       -0.4517
     19 C         140.7774  138.0609  163.7722 C.ar    1  UNL1        0.2312
     20 N         142.2440  138.3246  163.6007 N.ar    1  UNL1       -0.1892
     21 C         142.9940  139.0980  164.6444 C.ar    1  UNL1        0.2029
     22 N         142.2775  139.6076  165.8596 N.ar    1  UNL1       -0.2045
     23 C         140.8109  139.3439  166.0312 C.ar    1  UNL1        0.1732
     24 C         140.0608  138.5705  164.9875 C.ar    1  UNL1        0.1099
     25 C         138.6302  138.4666  165.4264 C.ar    1  UNL1        0.1283
     26 N         138.4961  139.1757  166.7414 N.ar    1  UNL1       -0.1606
     27 N         139.8439  139.7179  167.1151 N.ar    1  UNL1       -0.1936
     28 C         140.1677  140.4973  168.3551 C.ar    1  UNL1        0.1759
     29 N         140.2538  139.7981  169.6794 N.ar    1  UNL1       -0.2242
     30 C         140.5777  140.5775  170.9194 C.ar    1  UNL1        0.1006
     31 C         140.8155  142.0562  170.8352 C.ar    1  UNL1        0.0217
     32 C         140.7294  142.7553  169.5109 C.ar    1  UNL1        0.0161
     33 C         140.4055  141.9759  168.2709 C.ar    1  UNL1        0.0935
     34 CL        140.3195  142.6752  166.9467 Cl      1  UNL1       -0.0790
@<TRIPOS>BOND
     1    15    16    1
     2    16    17    1
     3    16    14    1
     4    14    13    1
     5     1    13    1
     6     1    18    1
     7    18    19    1
     8    19    20   ar
     9    20    21   ar
    10    21    22   ar
    11    22    23   ar
    12    23    24   ar
    13    24    25   ar
    14    25    26   ar
    15    26    27   ar
    16    27    28    1
    17    28    29   ar
    18    29    30   ar
    19    30    31   ar
    20    31    32   ar
    21    32    33   ar
    22    33    34    1
    23     1     2    1
    24     2     3    2
    25     2     4   am
    26     4     6    1
    27     6     7   ar
    28     7     8   ar
    29     8     9   ar
    30     9    10    1
    31     9    11   ar
    32    11    12   ar
    33    24    19   ar
    34    33    28   ar
    35    12     6   ar
    36    27    23   ar
    37     4     5    1
@<TRIPOS>MOLECULE
*****
 34 37 0 0 0
SMALL
GASTEIGER

@<TRIPOS>ATOM
      1 C         137.9872  142.8137  163.6888 C.3     1  UNL1        0.2722
      2 C         138.6398  141.9516  164.7285 C.2     1  UNL1        0.2701
      3 O         138.0492  140.6170  165.0747 O.2     1  UNL1       -0.2707
      4 N         139.8831  142.4242  165.4220 N.am    1  UNL1       -0.2663
      5 H         140.2707  143.3002  165.1948 H       1  UNL1        0.1564
      6 C         140.5357  141.5622  166.4617 C.ar    1  UNL1        0.1343
      7 C         140.2181  141.7674  167.9133 C.ar    1  UNL1        0.0354
      8 C         140.8708  140.9054  168.9529 C.ar    1  UNL1        0.0158
      9 C         141.8411  139.8382  168.5410 C.ar    1  UNL1        0.0769
     10 CL        142.4938  138.9762  169.5807 Cl      1  UNL1       -0.0806
     11 C         142.1587  139.6330  167.0895 C.ar    1  UNL1        0.1116
     12 N         141.5060  140.4951  166.0498 N.ar    1  UNL1       -0.2281
     13 C         138.0286  144.3074  163.8193 C.3     1  UNL1        0.1950
     14 O         139.3089  144.9921  164.1960 O.3     1  UNL1       -0.3519
     15 C         141.7560  145.0614  163.3257 C.3     1  UNL1        0.0320
     16 C         140.2999  145.3664  163.1339 C.3     1  UNL1        0.1156
     17 C         139.8348  146.0458  161.8801 C.3     1  UNL1        0.0320
     18 O         137.2931  142.1819  162.5187 O.3     1  UNL1       -0.4517
     19 C         138.0364  141.9636  161.2342 C.ar    1  UNL1        0.2312
     20 N         138.3132  143.1215  160.3218 N.ar    1  UNL1       -0.1892
     21 C         139.0565  142.9032  159.0373 C.ar    1  UNL1        0.2029
     22 N         139.5230  141.5269  158.6654 N.ar    1  UNL1       -0.2045
     23 C         139.2462  140.3690  159.5778 C.ar    1  UNL1        0.1732
     24 C         138.5029  140.5874  160.8622 C.ar    1  UNL1        0.1099
     25 C         138.3773  139.2634  161.5560 C.ar    1  UNL1        0.1283
     26 N         139.0430  138.2267  160.7003 N.ar    1  UNL1       -0.1606
     27 N         139.5800  138.9101  159.4777 N.ar    1  UNL1       -0.1936
     28 C         140.3207  138.2504  158.3526 C.ar    1  UNL1        0.1759
     29 N         139.5650  137.6840  157.1872 N.ar    1  UNL1       -0.2242
     30 C         140.3058  137.0243  156.0620 C.ar    1  UNL1        0.1006
     31 C         141.8023  136.9308  156.1022 C.ar    1  UNL1        0.0217
     32 C         142.5580  137.4972  157.2676 C.ar    1  UNL1        0.0161
     33 C         141.8173  138.1569  158.3928 C.ar    1  UNL1        0.0935
     34 CL        142.5731  138.7232  159.5581 Cl      1  UNL1       -0.0790
@<TRIPOS>BOND
     1    15    16    1
     2    16    17    1
     3    16    14    1
     4    14    13    1
     5     1    13    1
     6     1    18    1
     7    18    19    1
     8    19    20   ar
     9    20    21   ar
    10    21    22   ar
    11    22    23   ar
    12    23    24   ar
    13    24    25   ar
    14    25    26   ar
    15    26    27   ar
    16    27    28    1
    17    28    29   ar
    18    29    30   ar
    19    30    31   ar
    20    31    32   ar
    21    32    33   ar
    22    33    34    1
    23     1     2    1
    24     2     3    2
    25     2     4   am
    26     4     6    1
    27     6     7   ar
    28     7     8   ar
    29     8     9   ar
    30     9    10    1
    31     9    11   ar
    32    11    12   ar
    33    24    19   ar
    34    33    28   ar
    35    12     6   ar
    36    27    23   ar
    37     4     5    1
@<TRIPOS>MOLECULE
*****
 34 37 0 0 0
SMALL
GASTEIGER

@<TRIPOS>ATOM
      1 C         143.0400  138.2500  156.5560 C.3     1  UNL1        0.2722
      2 C         143.5632  136.8710  156.2828 C.2     1  UNL1        0.2701
      3 O         144.7912  136.6878  155.4411 O.2     1  UNL1       -0.2707
      4 N         142.8584  135.6751  156.8514 N.am    1  UNL1       -0.2663
      5 H         142.0525  135.7954  157.4039 H       1  UNL1        0.1564
      6 C         143.3816  134.2961  156.5783 C.ar    1  UNL1        0.1343
      7 C         143.0347  133.6031  155.2940 C.ar    1  UNL1        0.0354
      8 C         143.5578  132.2241  155.0208 C.ar    1  UNL1        0.0158
      9 C         144.4279  131.5381  156.0320 C.ar    1  UNL1        0.0769
     10 CL        144.9510  130.1591  155.7589 Cl      1  UNL1       -0.0806
     11 C         144.7748  132.2311  157.3163 C.ar    1  UNL1        0.1116
     12 N         144.2516  133.6102  157.5894 N.ar    1  UNL1       -0.2281
     13 C         143.7572  139.4469  156.0056 C.3     1  UNL1        0.1950
     14 O         145.0192  139.9300  156.6567 O.3     1  UNL1       -0.3519
     15 C         146.0017  142.3050  157.0369 C.3     1  UNL1        0.0320
     16 C         145.0259  141.2280  157.4085 C.3     1  UNL1        0.1156
     17 C         144.0569  141.4491  158.5320 C.3     1  UNL1        0.0320
     18 O         141.7996  138.4320  157.3796 O.3     1  UNL1       -0.4517
     19 C         141.8709  138.3337  158.8747 C.ar    1  UNL1        0.2312
     20 N         143.1589  137.9494  159.5405 N.ar    1  UNL1       -0.1892
     21 C         143.2302  137.8511  161.0355 C.ar    1  UNL1        0.2029
     22 N         142.0134  138.1370  161.8648 N.ar    1  UNL1       -0.2045
     23 C         140.7254  138.5213  161.1990 C.ar    1  UNL1        0.1732
     24 C         140.6541  138.6196  159.7040 C.ar    1  UNL1        0.1099
     25 C         139.2567  139.0180  159.3317 C.ar    1  UNL1        0.1283
     26 N         138.4643  139.1659  160.5967 N.ar    1  UNL1       -0.1606
     27 N         139.3720  138.8589  161.7507 N.ar    1  UNL1       -0.1936
     28 C         138.9929  138.8850  163.2018 C.ar    1  UNL1        0.1759
     29 N         138.9728  137.6119  163.9948 N.ar    1  UNL1       -0.2242
     30 C         138.5937  137.6379  165.4458 C.ar    1  UNL1        0.1006
     31 C         138.2347  138.9371  166.1040 C.ar    1  UNL1        0.0217
     32 C         138.2548  140.2102  165.3111 C.ar    1  UNL1        0.0161
     33 C         138.6339  140.1841  163.8600 C.ar    1  UNL1        0.0935
     34 CL        138.6539  141.4573  163.0671 Cl      1  UNL1       -0.0790
@<TRIPOS>BOND
     1    15    16    1
     2    16    17    1
     3    16    14    1
     4    14    13    1
     5     1    13    1
     6     1    18    1
     7    18    19    1
     8    19    20   ar
     9    20    21   ar
    10    21    22   ar
    11    22    23   ar
    12    23    24   ar
    13    24    25   ar
    14    25    26   ar
    15    26    27   ar
    16    27    28    1
    17    28    29   ar
    18    29    30   ar
    19    30    31   ar
    20    31    32   ar
    21    32    33   ar
    22    33    34    1
    23     1     2    1
    24     2     3    2
    25     2     4   am
    26     4     6    1
    27     6     7   ar
    28     7     8   ar
    29     8     9   ar
    30     9    10    1
    31     9    11   ar
    32    11    12   ar
    33    24    19   ar
    34    33    28   ar
    35    12     6   ar
    36    27    23   ar
    37     4     5    1
@<TRIPOS>MOLECULE
*****
 34 37 0 0 0
SMALL
GASTEIGER

@<TRIPOS>ATOM
      1 C         141.1462  144.1989  161.5547 C.3     1  UNL1        0.2722
      2 C         140.9414  144.3544  160.0768 C.2     1  UNL1        0.2701
      3 O         140.1024  143.3622  159.3274 O.2     1  UNL1       -0.2707
      4 N         141.5756  145.5021  159.3484 N.am    1  UNL1       -0.2663
      5 H         142.1263  146.1533  159.8403 H       1  UNL1        0.1564
      6 C         141.3709  145.6576  157.8707 C.ar    1  UNL1        0.1343
      7 C         142.3696  145.0827  156.9105 C.ar    1  UNL1        0.0354
      8 C         142.1648  145.2382  155.4327 C.ar    1  UNL1        0.0158
      9 C         140.9613  145.9687  154.9151 C.ar    1  UNL1        0.0769
     10 CL        140.7565  146.1242  153.4373 Cl      1  UNL1       -0.0806
     11 C         139.9625  146.5436  155.8753 C.ar    1  UNL1        0.1116
     12 N         140.1673  146.3881  157.3531 N.ar    1  UNL1       -0.2281
     13 C         140.8742  145.3517  162.4749 C.3     1  UNL1        0.1950
     14 O         139.4641  145.6851  162.8629 O.3     1  UNL1       -0.3519
     15 C         137.7911  143.7106  163.0919 C.3     1  UNL1        0.0320
     16 C         138.6798  144.7402  163.7244 C.3     1  UNL1        0.1156
     17 C         138.7844  144.8249  165.2183 C.3     1  UNL1        0.0320
     18 O         141.6230  142.8905  162.1121 O.3     1  UNL1       -0.4517
     19 C         142.2826  142.8448  163.4586 C.ar    1  UNL1        0.2312
     20 N         143.6395  143.4549  163.6502 N.ar    1  UNL1       -0.1892
     21 C         144.2990  143.4091  164.9966 C.ar    1  UNL1        0.2029
     22 N         143.6017  142.7533  166.1514 N.ar    1  UNL1       -0.2045
     23 C         142.2449  142.1432  165.9599 C.ar    1  UNL1        0.1732
     24 C         141.5854  142.1889  164.6135 C.ar    1  UNL1        0.1099
     25 C         140.2535  141.5079  164.7262 C.ar    1  UNL1        0.1283
     26 N         140.0901  141.0413  166.1424 N.ar    1  UNL1       -0.1606
     27 N         141.3208  141.4339  166.9048 N.ar    1  UNL1       -0.1936
     28 C         141.5816  141.1646  168.3572 C.ar    1  UNL1        0.1759
     29 N         141.0630  142.1096  169.4002 N.ar    1  UNL1       -0.2242
     30 C         141.3238  141.8403  170.8526 C.ar    1  UNL1        0.1006
     31 C         142.1032  140.6258  171.2620 C.ar    1  UNL1        0.0217
     32 C         142.6218  139.6808  170.2190 C.ar    1  UNL1        0.0161
     33 C         142.3610  139.9502  168.7666 C.ar    1  UNL1        0.0935
     34 CL        142.8796  139.0051  167.7236 Cl      1  UNL1       -0.0790
@<TRIPOS>BOND
     1    15    16    1
     2    16    17    1
     3    16    14    1
     4    14    13    1
     5     1    13    1
     6     1    18    1
     7    18    19    1
     8    19    20   ar
     9    20    21   ar
    10    21    22   ar
    11    22    23   ar
    12    23    24   ar
    13    24    25   ar
    14    25    26   ar
    15    26    27   ar
    16    27    28    1
    17    28    29   ar
    18    29    30   ar
    19    30    31   ar
    20    31    32   ar
    21    32    33   ar
    22    33    34    1
    23     1     2    1
    24     2     3    2
    25     2     4   am
    26     4     6    1
    27     6     7   ar
    28     7     8   ar
    29     8     9   ar
    30     9    10    1
    31     9    11   ar
    32    11    12   ar
    33    24    19   ar
    34    33    28   ar
    35    12     6   ar
    36    27    23   ar
    37     4     5    1
@<TRIPOS>MOLECULE
*****
 34 37 0 0 0
SMALL
GASTEIGER

@<TRIPOS>ATOM
      1 C         144.3427  141.5093  158.2517 C.3     1  UNL1        0.2722
      2 C         145.2664  141.5874  157.0724 C.2     1  UNL1        0.2701
      3 O         145.1236  140.6120  155.9419 O.2     1  UNL1       -0.2707
      4 N         146.3330  142.6410  157.0237 N.am    1  UNL1       -0.2663
      5 H         146.4267  143.2812  157.7658 H       1  UNL1        0.1564
      6 C         147.2567  142.7192  155.8445 C.ar    1  UNL1        0.1343
      7 C         148.5175  141.9068  155.8243 C.ar    1  UNL1        0.0354
      8 C         149.4413  141.9850  154.6451 C.ar    1  UNL1        0.0158
      9 C         149.1042  142.8756  153.4860 C.ar    1  UNL1        0.0769
     10 CL        150.0279  142.9538  152.3068 Cl      1  UNL1       -0.0806
     11 C         147.8434  143.6879  153.5063 C.ar    1  UNL1        0.1116
     12 N         146.9196  143.6097  154.6856 N.ar    1  UNL1       -0.2281
     13 C         144.3015  142.6301  159.2477 C.3     1  UNL1        0.1950
     14 O         145.2167  142.6114  160.4361 O.3     1  UNL1       -0.3519
     15 C         145.3546  141.7536  162.8846 C.3     1  UNL1        0.0320
     16 C         144.6458  142.5391  161.8213 C.3     1  UNL1        0.1156
     17 C         143.3661  143.2523  162.1433 C.3     1  UNL1        0.0320
     18 O         143.4601  140.3103  158.4349 O.3     1  UNL1       -0.4517
     19 C         143.2413  139.7426  159.8060 C.ar    1  UNL1        0.2312
     20 N         144.2331  138.7780  160.3854 N.ar    1  UNL1       -0.1892
     21 C         144.0143  138.2103  161.7565 C.ar    1  UNL1        0.2029
     22 N         142.8035  138.6072  162.5481 N.ar    1  UNL1       -0.2045
     23 C         141.8117  139.5718  161.9686 C.ar    1  UNL1        0.1732
     24 C         142.0305  140.1395  160.5976 C.ar    1  UNL1        0.1099
     25 C         140.8887  141.0625  160.2904 C.ar    1  UNL1        0.1283
     26 N         139.9642  141.0652  161.4715 N.ar    1  UNL1       -0.1606
     27 N         140.5346  140.1439  162.5088 N.ar    1  UNL1       -0.1936
     28 C         139.9335  139.8469  163.8506 C.ar    1  UNL1        0.1759
     29 N         140.1039  140.8186  164.9805 N.ar    1  UNL1       -0.2242
     30 C         139.5028  140.5216  166.3223 C.ar    1  UNL1        0.1006
     31 C         138.7313  139.2528  166.5342 C.ar    1  UNL1        0.0217
     32 C         138.5609  138.2810  165.4043 C.ar    1  UNL1        0.0161
     33 C         139.1620  138.5781  164.0625 C.ar    1  UNL1        0.0935
     34 CL        138.9916  137.6063  162.9327 Cl      1  UNL1       -0.0790
@<TRIPOS>BOND
     1    15    16    1
     2    16    17    1
     3    16    14    1
     4    14    13    1
     5     1    13    1
     6     1    18    1
     7    18    19    1
     8    19    20   ar
     9    20    21   ar
    10    21    22   ar
    11    22    23   ar
    12    23    24   ar
    13    24    25   ar
    14    25    26   ar
    15    26    27   ar
    16    27    28    1
    17    28    29   ar
    18    29    30   ar
    19    30    31   ar
    20    31    32   ar
    21    32    33   ar
    22    33    34    1
    23     1     2    1
    24     2     3    2
    25     2     4   am
    26     4     6    1
    27     6     7   ar
    28     7     8   ar
    29     8     9   ar
    30     9    10    1
    31     9    11   ar
    32    11    12   ar
    33    24    19   ar
    34    33    28   ar
    35    12     6   ar
    36    27    23   ar
    37     4     5    1
@<TRIPOS>MOLECULE
*****
 34 37 0 0 0
SMALL
GASTEIGER

@<TRIPOS>ATOM
      1 C         138.9355  138.5791  163.8069 C.3     1  UNL1        0.2722
      2 C         138.9282  139.5006  164.9904 C.2     1  UNL1        0.2701
      3 O         138.0100  140.6865  165.0120 O.2     1  UNL1       -0.2707
      4 N         139.8392  139.2362  166.1524 N.am    1  UNL1       -0.2663
      5 H         140.4418  138.4578  166.1383 H       1  UNL1        0.1564
      6 C         139.8320  140.1577  167.3359 C.ar    1  UNL1        0.1343
      7 C         140.4880  141.5034  167.2427 C.ar    1  UNL1        0.0354
      8 C         140.4808  142.4249  168.4262 C.ar    1  UNL1        0.0158
      9 C         139.8175  142.0007  169.7031 C.ar    1  UNL1        0.0769
     10 CL        139.8103  142.9222  170.8866 Cl      1  UNL1       -0.0806
     11 C         139.1615  140.6550  169.7963 C.ar    1  UNL1        0.1116
     12 N         139.1687  139.7335  168.6127 N.ar    1  UNL1       -0.2281
     13 C         139.8082  137.3591  163.8116 C.3     1  UNL1        0.1950
     14 O         141.1098  137.3652  163.0661 O.3     1  UNL1       -0.3519
     15 C         142.8833  138.5669  164.5360 C.3     1  UNL1        0.0320
     16 C         142.0849  138.4870  163.2687 C.3     1  UNL1        0.1156
     17 C         142.2615  139.5287  162.2040 C.3     1  UNL1        0.0320
     18 O         138.0700  138.8775  162.6187 O.3     1  UNL1       -0.4517
     19 C         138.6882  139.3808  161.3480 C.ar    1  UNL1        0.2312
     20 N         139.3152  138.4161  160.3856 N.ar    1  UNL1       -0.1892
     21 C         139.9333  138.9194  159.1150 C.ar    1  UNL1        0.2029
     22 N         139.9245  140.3874  158.8067 N.ar    1  UNL1       -0.2045
     23 C         139.2975  141.3520  159.7691 C.ar    1  UNL1        0.1732
     24 C         138.6793  140.8487  161.0397 C.ar    1  UNL1        0.1099
     25 C         138.1391  142.0290  161.7917 C.ar    1  UNL1        0.1283
     26 N         138.4234  143.2617  160.9857 N.ar    1  UNL1       -0.1606
     27 N         139.1393  142.8433  159.7357 N.ar    1  UNL1       -0.1936
     28 C         139.6138  143.7559  158.6439 C.ar    1  UNL1        0.1759
     29 N         139.0614  143.6161  157.2564 N.ar    1  UNL1       -0.2242
     30 C         139.5359  144.5287  156.1647 C.ar    1  UNL1        0.1006
     31 C         140.5628  145.5813  156.4604 C.ar    1  UNL1        0.0217
     32 C         141.1152  145.7212  157.8480 C.ar    1  UNL1        0.0161
     33 C         140.6407  144.8086  158.9397 C.ar    1  UNL1        0.0935
     34 CL        141.1931  144.9485  160.3272 Cl      1  UNL1       -0.0790
@<TRIPOS>BOND
     1    15    16    1
     2    16    17    1
     3    16    14    1
     4    14    13    1
     5     1    13    1
     6     1    18    1
     7    18    19    1
     8    19    20   ar
     9    20    21   ar
    10    21    22   ar
    11    22    23   ar
    12    23    24   ar
    13    24    25   ar
    14    25    26   ar
    15    26    27   ar
    16    27    28    1
    17    28    29   ar
    18    29    30   ar
    19    30    31   ar
    20    31    32   ar
    21    32    33   ar
    22    33    34    1
    23     1     2    1
    24     2     3    2
    25     2     4   am
    26     4     6    1
    27     6     7   ar
    28     7     8   ar
    29     8     9   ar
    30     9    10    1
    31     9    11   ar
    32    11    12   ar
    33    24    19   ar
    34    33    28   ar
    35    12     6   ar
    36    27    23   ar
    37     4     5    1
