@<TRIPOS>MOLECULE
*****
 33 36 0 0 0
SMALL
GASTEIGER

@<TRIPOS>ATOM
      1 C         140.7746  145.7550  153.8651 C.3     1  UNL1        0.0952
      2 C         140.1430  146.1728  155.1598 C.2     1  UNL1        0.2302
      3 O         138.9941  147.1372  155.1570 O.2     1  UNL1       -0.2745
      4 N         140.6602  145.6261  156.4574 N.am    1  UNL1       -0.2515
      5 C         141.8090  144.6617  156.4602 C.2     1  UNL1        0.0695
      6 C         142.3262  144.1151  157.7578 C.2     1  UNL1        0.0366
      7 C         141.6946  144.5329  159.0525 C.ar    1  UNL1        0.0993
      8 N         142.2118  143.9862  160.3501 N.ar    1  UNL1       -0.2265
      9 C         141.5801  144.4040  161.6449 C.ar    1  UNL1        0.1633
     10 C         140.4312  145.3684  161.6421 C.ar    1  UNL1        0.1600
     11 N         139.9140  145.9151  160.3445 N.ar    1  UNL1       -0.2291
     12 C         140.5457  145.4973  159.0497 C.ar    1  UNL1        0.0985
     13 C         140.0285  146.0439  157.7522 C.3     1  UNL1        0.1454
     14 N         142.0973  143.8573  162.9424 N.pl3   1  UNL1       -0.2908
     15 C         143.1947  144.5727  163.6734 C.3     1  UNL1        0.0960
     16 C         143.7119  144.0260  164.9710 C.3     1  UNL1        0.0650
     17 C         143.1317  142.7641  165.5376 C.3     1  UNL1        0.1694
     18 C         142.0344  142.0488  164.8066 C.3     1  UNL1        0.0650
     19 C         141.5172  142.5955  163.5091 C.3     1  UNL1        0.0960
     20 O         143.6489  142.2174  166.8352 O.3     1  UNL1       -0.4768
     21 C         142.6932  141.6609  167.8486 C.ar    1  UNL1        0.1657
     22 C         141.8794  142.5889  168.7009 C.ar    1  UNL1        0.0415
     23 C         140.9237  142.0324  169.7143 C.ar    1  UNL1        0.0329
     24 C         140.7820  140.5479  169.8755 C.ar    1  UNL1        0.1426
     25 F         139.8264  139.9913  170.8889 F       1  UNL1       -0.2041
     26 C         141.5959  139.6198  169.0232 C.ar    1  UNL1        0.0624
     27 C         142.5515  140.1764  168.0098 C.ar    1  UNL1        0.1760
     28 F         143.3654  139.2483  167.1575 F       1  UNL1       -0.2009
     29 N         139.7996  145.7862  162.9369 N.pl3   1  UNL1       -0.3175
     30 H         140.0023  146.6697  163.3209 H       1  UNL1        0.1482
     31 C         138.8591  144.8578  163.6465 C.3     1  UNL1        0.0706
     32 C         138.9264  144.7182  165.1385 C.3     1  UNL1        0.0212
     33 C         137.8512  144.0690  162.8641 C.3     1  UNL1        0.0212
@<TRIPOS>BOND
     1     1     2    1
     2     2     3    2
     3     2     4   am
     4     4     5    1
     5     5     6    2
     6     6     7    1
     7     7     8   ar
     8     8     9   ar
     9     9    14    1
    10    14    15    1
    11    15    16    1
    12    16    17    1
    13    17    20    1
    14    20    21    1
    15    21    22   ar
    16    22    23   ar
    17    23    24   ar
    18    24    25    1
    19    24    26   ar
    20    26    27   ar
    21    27    28    1
    22    17    18    1
    23    18    19    1
    24     9    10   ar
    25    10    29    1
    26    29    31    1
    27    31    32    1
    28    31    33    1
    29    10    11   ar
    30    11    12   ar
    31    12    13    1
    32    13     4    1
    33    12     7   ar
    34    19    14    1
    35    27    21   ar
    36    29    30    1
@<TRIPOS>MOLECULE
*****
 33 36 0 0 0
SMALL
GASTEIGER

@<TRIPOS>ATOM
      1 C         144.9967  142.6494  154.9770 C.3     1  UNL1        0.0952
      2 C         144.3487  141.4504  155.6033 C.2     1  UNL1        0.2302
      3 O         143.8280  140.3415  154.7378 O.2     1  UNL1       -0.2745
      4 N         144.2212  141.3603  157.0952 N.am    1  UNL1       -0.2515
      5 C         144.7419  142.4692  157.9607 C.2     1  UNL1        0.0695
      6 C         144.6145  142.3791  159.4526 C.2     1  UNL1        0.0366
      7 C         143.9664  141.1800  160.0789 C.ar    1  UNL1        0.0993
      8 N         143.8390  141.0899  161.5707 N.ar    1  UNL1       -0.2265
      9 C         143.1909  139.8909  162.1970 C.ar    1  UNL1        0.1633
     10 C         142.6702  138.7819  161.3315 C.ar    1  UNL1        0.1600
     11 N         142.7977  138.8720  159.8396 N.ar    1  UNL1       -0.2291
     12 C         143.4458  140.0711  159.2133 C.ar    1  UNL1        0.0985
     13 C         143.5732  140.1613  157.7215 C.3     1  UNL1        0.1454
     14 N         143.0635  139.8008  163.6889 N.pl3   1  UNL1       -0.2908
     15 C         142.1249  140.7159  164.4181 C.3     1  UNL1        0.0960
     16 C         141.9975  140.6258  165.9100 C.3     1  UNL1        0.0650
     17 C         142.8087  139.6206  166.6726 C.3     1  UNL1        0.1694
     18 C         143.7472  138.7055  165.9434 C.3     1  UNL1        0.0650
     19 C         143.8746  138.7957  164.4516 C.3     1  UNL1        0.0960
     20 O         142.6812  139.5305  168.1645 O.3     1  UNL1       -0.4768
     21 C         141.8130  140.5054  168.9033 C.ar    1  UNL1        0.1657
     22 C         140.4116  140.1258  169.2800 C.ar    1  UNL1        0.0415
     23 C         139.5433  141.1007  170.0188 C.ar    1  UNL1        0.0329
     24 C         140.0766  142.4552  170.3809 C.ar    1  UNL1        0.1426
     25 F         139.2084  143.4300  171.1197 F       1  UNL1       -0.2041
     26 C         141.4781  142.8347  170.0042 C.ar    1  UNL1        0.0624
     27 C         142.3463  141.8598  169.2654 C.ar    1  UNL1        0.1760
     28 F         143.7478  142.2393  168.8887 F       1  UNL1       -0.2009
     29 N         142.0222  137.5829  161.9578 N.pl3   1  UNL1       -0.3175
     30 H         142.5191  136.7360  162.0296 H       1  UNL1        0.1482
     31 C         140.6170  137.6742  162.4748 C.3     1  UNL1        0.0706
     32 C         139.4932  138.0051  161.5381 C.3     1  UNL1        0.0212
     33 C         140.3357  137.4345  163.9286 C.3     1  UNL1        0.0212
@<TRIPOS>BOND
     1     1     2    1
     2     2     3    2
     3     2     4   am
     4     4     5    1
     5     5     6    2
     6     6     7    1
     7     7     8   ar
     8     8     9   ar
     9     9    14    1
    10    14    15    1
    11    15    16    1
    12    16    17    1
    13    17    20    1
    14    20    21    1
    15    21    22   ar
    16    22    23   ar
    17    23    24   ar
    18    24    25    1
    19    24    26   ar
    20    26    27   ar
    21    27    28    1
    22    17    18    1
    23    18    19    1
    24     9    10   ar
    25    10    29    1
    26    29    31    1
    27    31    32    1
    28    31    33    1
    29    10    11   ar
    30    11    12   ar
    31    12    13    1
    32    13     4    1
    33    12     7   ar
    34    19    14    1
    35    27    21   ar
    36    29    30    1
@<TRIPOS>MOLECULE
*****
 33 36 0 0 0
SMALL
GASTEIGER

@<TRIPOS>ATOM
      1 C         140.0107  145.9444  155.3940 C.3     1  UNL1        0.0952
      2 C         141.1031  145.0524  155.9047 C.2     1  UNL1        0.2302
      3 O         142.0200  144.3615  154.9393 O.2     1  UNL1       -0.2745
      4 N         141.2787  144.8512  157.3807 N.am    1  UNL1       -0.2515
      5 C         140.3619  145.5420  158.3461 C.2     1  UNL1        0.0695
      6 C         140.5374  145.3409  159.8222 C.2     1  UNL1        0.0366
      7 C         141.6298  144.4488  160.3328 C.ar    1  UNL1        0.0993
      8 N         141.8054  144.2476  161.8089 N.ar    1  UNL1       -0.2265
      9 C         142.8978  143.3556  162.3195 C.ar    1  UNL1        0.1633
     10 C         143.8147  142.6646  161.3541 C.ar    1  UNL1        0.1600
     11 N         143.6392  142.8658  159.8781 N.ar    1  UNL1       -0.2291
     12 C         142.5467  143.7579  159.3674 C.ar    1  UNL1        0.0985
     13 C         142.3711  143.9591  157.8914 C.3     1  UNL1        0.1454
     14 N         143.0734  143.1544  163.7956 N.pl3   1  UNL1       -0.2908
     15 C         144.2784  143.7152  164.4908 C.3     1  UNL1        0.0960
     16 C         144.4540  143.5140  165.9669 C.3     1  UNL1        0.0650
     17 C         143.4245  142.7520  166.7476 C.3     1  UNL1        0.1694
     18 C         142.2195  142.1912  166.0524 C.3     1  UNL1        0.0650
     19 C         142.0440  142.3924  164.5763 C.3     1  UNL1        0.0960
     20 O         143.6001  142.5508  168.2237 O.3     1  UNL1       -0.4768
     21 C         142.5943  141.7498  168.9963 C.ar    1  UNL1        0.1657
     22 C         142.7370  140.2598  169.0934 C.ar    1  UNL1        0.0415
     23 C         141.7313  139.4587  169.8660 C.ar    1  UNL1        0.0329
     24 C         140.5829  140.1477  170.5415 C.ar    1  UNL1        0.1426
     25 F         139.5771  139.3468  171.3141 F       1  UNL1       -0.2041
     26 C         140.4402  141.6378  170.4444 C.ar    1  UNL1        0.0624
     27 C         141.4459  142.4388  169.6718 C.ar    1  UNL1        0.1760
     28 F         141.3032  143.9289  169.5747 F       1  UNL1       -0.2009
     29 N         144.9071  141.7726  161.8648 N.pl3   1  UNL1       -0.3175
     30 H         145.8355  142.0989  161.8947 H       1  UNL1        0.1482
     31 C         144.5851  140.3832  162.3298 C.3     1  UNL1        0.0706
     32 C         144.8454  139.9898  163.7537 C.3     1  UNL1        0.0212
     33 C         144.0028  139.3875  161.3710 C.3     1  UNL1        0.0212
@<TRIPOS>BOND
     1     1     2    1
     2     2     3    2
     3     2     4   am
     4     4     5    1
     5     5     6    2
     6     6     7    1
     7     7     8   ar
     8     8     9   ar
     9     9    14    1
    10    14    15    1
    11    15    16    1
    12    16    17    1
    13    17    20    1
    14    20    21    1
    15    21    22   ar
    16    22    23   ar
    17    23    24   ar
    18    24    25    1
    19    24    26   ar
    20    26    27   ar
    21    27    28    1
    22    17    18    1
    23    18    19    1
    24     9    10   ar
    25    10    29    1
    26    29    31    1
    27    31    32    1
    28    31    33    1
    29    10    11   ar
    30    11    12   ar
    31    12    13    1
    32    13     4    1
    33    12     7   ar
    34    19    14    1
    35    27    21   ar
    36    29    30    1
@<TRIPOS>MOLECULE
*****
 33 36 0 0 0
SMALL
GASTEIGER

@<TRIPOS>ATOM
      1 C         140.9811  145.4394  154.1471 C.3     1  UNL1        0.0952
      2 C         140.0431  144.5978  154.9605 C.2     1  UNL1        0.2302
      3 O         138.9544  143.8196  154.2829 O.2     1  UNL1       -0.2745
      4 N         140.1937  144.5343  156.4516 N.am    1  UNL1       -0.2515
      5 C         141.2824  145.3124  157.1292 C.2     1  UNL1        0.0695
      6 C         141.4331  145.2490  158.6203 C.2     1  UNL1        0.0366
      7 C         140.4951  144.4074  159.4337 C.ar    1  UNL1        0.0993
      8 N         140.6458  144.3439  160.9248 N.ar    1  UNL1       -0.2265
      9 C         139.7078  143.5023  161.7383 C.ar    1  UNL1        0.1633
     10 C         138.6190  142.7241  161.0607 C.ar    1  UNL1        0.1600
     11 N         138.4683  142.7875  159.5696 N.ar    1  UNL1       -0.2291
     12 C         139.4064  143.6292  158.7561 C.ar    1  UNL1        0.0985
     13 C         139.2557  143.6927  157.2651 C.3     1  UNL1        0.1454
     14 N         139.8585  143.4388  163.2293 N.pl3   1  UNL1       -0.2908
     15 C         140.8272  142.4729  163.8448 C.3     1  UNL1        0.0960
     16 C         140.9779  142.4095  165.3359 C.3     1  UNL1        0.0650
     17 C         140.1599  143.3119  166.2114 C.3     1  UNL1        0.1694
     18 C         139.1912  144.2777  165.5960 C.3     1  UNL1        0.0650
     19 C         139.0405  144.3411  164.1049 C.3     1  UNL1        0.0960
     20 O         140.3106  143.2484  167.7025 O.3     1  UNL1       -0.4768
     21 C         140.8428  142.0045  168.3503 C.ar    1  UNL1        0.1657
     22 C         139.9035  141.0498  169.0256 C.ar    1  UNL1        0.0415
     23 C         140.4357  139.8059  169.6734 C.ar    1  UNL1        0.0329
     24 C         141.9073  139.5168  169.6457 C.ar    1  UNL1        0.1426
     25 F         142.4396  138.2730  170.2934 F       1  UNL1       -0.2041
     26 C         142.8467  140.4716  168.9703 C.ar    1  UNL1        0.0624
     27 C         142.3144  141.7154  168.3226 C.ar    1  UNL1        0.1760
     28 F         143.2538  142.6702  167.6472 F       1  UNL1       -0.2009
     29 N         137.6810  141.8825  161.8741 N.pl3   1  UNL1       -0.3175
     30 H         136.7839  142.2209  162.0976 H       1  UNL1        0.1482
     31 C         138.1098  140.5251  162.3472 C.3     1  UNL1        0.0706
     32 C         138.0487  140.1857  163.8070 C.3     1  UNL1        0.0212
     33 C         138.5996  139.5071  161.3604 C.3     1  UNL1        0.0212
@<TRIPOS>BOND
     1     1     2    1
     2     2     3    2
     3     2     4   am
     4     4     5    1
     5     5     6    2
     6     6     7    1
     7     7     8   ar
     8     8     9   ar
     9     9    14    1
    10    14    15    1
    11    15    16    1
    12    16    17    1
    13    17    20    1
    14    20    21    1
    15    21    22   ar
    16    22    23   ar
    17    23    24   ar
    18    24    25    1
    19    24    26   ar
    20    26    27   ar
    21    27    28    1
    22    17    18    1
    23    18    19    1
    24     9    10   ar
    25    10    29    1
    26    29    31    1
    27    31    32    1
    28    31    33    1
    29    10    11   ar
    30    11    12   ar
    31    12    13    1
    32    13     4    1
    33    12     7   ar
    34    19    14    1
    35    27    21   ar
    36    29    30    1
@<TRIPOS>MOLECULE
*****
 33 36 0 0 0
SMALL
GASTEIGER

@<TRIPOS>ATOM
      1 C         141.8063  137.7842  153.5685 C.3     1  UNL1        0.0952
      2 C         142.8048  138.1832  154.6143 C.2     1  UNL1        0.2302
      3 O         144.2303  138.4461  154.2287 O.2     1  UNL1       -0.2745
      4 N         142.3777  138.3192  156.0458 N.am    1  UNL1       -0.2515
      5 C         140.9522  138.0562  156.4314 C.2     1  UNL1        0.0695
      6 C         140.5251  138.1922  157.8629 C.2     1  UNL1        0.0366
      7 C         141.5236  138.5912  158.9088 C.ar    1  UNL1        0.0993
      8 N         141.0965  138.7272  160.3402 N.ar    1  UNL1       -0.2265
      9 C         142.0949  139.1261  161.3861 C.ar    1  UNL1        0.1633
     10 C         143.5205  139.3891  161.0005 C.ar    1  UNL1        0.1600
     11 N         143.9476  139.2531  159.5691 N.ar    1  UNL1       -0.2291
     12 C         142.9491  138.8541  158.5232 C.ar    1  UNL1        0.0985
     13 C         143.3761  138.7181  157.0917 C.3     1  UNL1        0.1454
     14 N         141.6678  139.2621  162.8176 N.pl3   1  UNL1       -0.2908
     15 C         142.1173  138.2540  163.8334 C.3     1  UNL1        0.0960
     16 C         141.6903  138.3900  165.2648 C.3     1  UNL1        0.0650
     17 C         140.8137  139.5342  165.6805 C.3     1  UNL1        0.1694
     18 C         140.3643  140.5422  164.6648 C.3     1  UNL1        0.0650
     19 C         140.7913  140.4062  163.2333 C.3     1  UNL1        0.0960
     20 O         140.3866  139.6702  167.1120 O.3     1  UNL1       -0.4768
     21 C         141.0900  140.6390  168.0157 C.ar    1  UNL1        0.1657
     22 C         140.4881  141.9863  168.2847 C.ar    1  UNL1        0.0415
     23 C         141.1915  142.9552  169.1884 C.ar    1  UNL1        0.0329
     24 C         142.4968  142.5767  169.8231 C.ar    1  UNL1        0.1426
     25 F         143.2002  143.5454  170.7267 F       1  UNL1       -0.2041
     26 C         143.0987  141.2293  169.5541 C.ar    1  UNL1        0.0624
     27 C         142.3953  140.2605  168.6504 C.ar    1  UNL1        0.1760
     28 F         142.9973  138.9131  168.3814 F       1  UNL1       -0.2009
     29 N         144.5189  139.7881  162.0464 N.pl3   1  UNL1       -0.3175
     30 H         145.0610  139.1009  162.4971 H       1  UNL1        0.1482
     31 C         144.6915  141.2342  162.4057 C.3     1  UNL1        0.0706
     32 C         145.7160  141.6368  163.4247 C.3     1  UNL1        0.0212
     33 C         143.8395  142.2777  161.7460 C.3     1  UNL1        0.0212
@<TRIPOS>BOND
     1     1     2    1
     2     2     3    2
     3     2     4   am
     4     4     5    1
     5     5     6    2
     6     6     7    1
     7     7     8   ar
     8     8     9   ar
     9     9    14    1
    10    14    15    1
    11    15    16    1
    12    16    17    1
    13    17    20    1
    14    20    21    1
    15    21    22   ar
    16    22    23   ar
    17    23    24   ar
    18    24    25    1
    19    24    26   ar
    20    26    27   ar
    21    27    28    1
    22    17    18    1
    23    18    19    1
    24     9    10   ar
    25    10    29    1
    26    29    31    1
    27    31    32    1
    28    31    33    1
    29    10    11   ar
    30    11    12   ar
    31    12    13    1
    32    13     4    1
    33    12     7   ar
    34    19    14    1
    35    27    21   ar
    36    29    30    1
@<TRIPOS>MOLECULE
*****
 33 36 0 0 0
SMALL
GASTEIGER

@<TRIPOS>ATOM
      1 C         140.9033  140.7457  171.2005 C.3     1  UNL1        0.0952
      2 C         139.9531  140.4573  170.0763 C.2     1  UNL1        0.2302
      3 O         138.4766  140.4080  170.3362 O.2     1  UNL1       -0.2745
      4 N         140.4794  140.2183  168.6921 N.am    1  UNL1       -0.2515
      5 C         141.9559  140.2677  168.4322 C.2     1  UNL1        0.0695
      6 C         142.4822  140.0287  167.0481 C.2     1  UNL1        0.0366
      7 C         141.5320  139.7404  165.9238 C.ar    1  UNL1        0.0993
      8 N         142.0583  139.5014  164.5396 N.ar    1  UNL1       -0.2265
      9 C         141.1082  139.2130  163.4154 C.ar    1  UNL1        0.1633
     10 C         139.6316  139.1637  163.6752 C.ar    1  UNL1        0.1600
     11 N         139.1053  139.4026  165.0594 N.ar    1  UNL1       -0.2291
     12 C         140.0556  139.6910  166.1837 C.ar    1  UNL1        0.0985
     13 C         139.5293  139.9300  167.5678 C.3     1  UNL1        0.1454
     14 N         141.6345  138.9740  162.0312 N.pl3   1  UNL1       -0.2908
     15 C         142.3225  137.6821  161.7031 C.3     1  UNL1        0.0960
     16 C         142.8488  137.4431  160.3190 C.3     1  UNL1        0.0650
     17 C         142.6871  138.4961  159.2629 C.3     1  UNL1        0.1694
     18 C         141.9991  139.7879  159.5910 C.3     1  UNL1        0.0650
     19 C         141.4728  140.0269  160.9752 C.3     1  UNL1        0.0960
     20 O         143.2134  138.2571  157.8788 O.3     1  UNL1       -0.4768
     21 C         142.6449  137.1502  157.0409 C.ar    1  UNL1        0.1657
     22 C         143.3672  135.8395  156.9396 C.ar    1  UNL1        0.0415
     23 C         142.7988  134.7327  156.1018 C.ar    1  UNL1        0.0329
     24 C         141.5080  134.9366  155.3654 C.ar    1  UNL1        0.1426
     25 F         140.9396  133.8299  154.5276 F       1  UNL1       -0.2041
     26 C         140.7857  136.2474  155.4667 C.ar    1  UNL1        0.0624
     27 C         141.3542  137.3542  156.3045 C.ar    1  UNL1        0.1760
     28 F         140.6319  138.6650  156.4058 F       1  UNL1       -0.2009
     29 N         138.6815  138.8753  162.5510 N.pl3   1  UNL1       -0.3175
     30 H         138.5322  137.9472  162.2585 H       1  UNL1        0.1482
     31 C         137.9588  140.0011  161.8723 C.3     1  UNL1        0.0706
     32 C         137.4508  141.1599  162.6779 C.3     1  UNL1        0.0212
     33 C         137.7441  139.9679  160.3881 C.3     1  UNL1        0.0212
@<TRIPOS>BOND
     1     1     2    1
     2     2     3    2
     3     2     4   am
     4     4     5    1
     5     5     6    2
     6     6     7    1
     7     7     8   ar
     8     8     9   ar
     9     9    14    1
    10    14    15    1
    11    15    16    1
    12    16    17    1
    13    17    20    1
    14    20    21    1
    15    21    22   ar
    16    22    23   ar
    17    23    24   ar
    18    24    25    1
    19    24    26   ar
    20    26    27   ar
    21    27    28    1
    22    17    18    1
    23    18    19    1
    24     9    10   ar
    25    10    29    1
    26    29    31    1
    27    31    32    1
    28    31    33    1
    29    10    11   ar
    30    11    12   ar
    31    12    13    1
    32    13     4    1
    33    12     7   ar
    34    19    14    1
    35    27    21   ar
    36    29    30    1
@<TRIPOS>MOLECULE
*****
 33 36 0 0 0
SMALL
GASTEIGER

@<TRIPOS>ATOM
      1 C         139.3826  143.6451  154.6046 C.3     1  UNL1        0.0952
      2 C         139.4952  142.3071  155.2732 C.2     1  UNL1        0.2302
      3 O         139.5759  141.0592  154.4448 O.2     1  UNL1       -0.2745
      4 N         139.5270  142.2170  156.7701 N.am    1  UNL1       -0.2515
      5 C         139.4462  143.4648  157.5985 C.2     1  UNL1        0.0695
      6 C         139.4781  143.3747  159.0955 C.2     1  UNL1        0.0366
      7 C         139.5906  142.0367  159.7640 C.ar    1  UNL1        0.0993
      8 N         139.6224  141.9466  161.2610 N.ar    1  UNL1       -0.2265
      9 C         139.7350  140.6086  161.9296 C.ar    1  UNL1        0.1633
     10 C         139.8158  139.3606  161.1012 C.ar    1  UNL1        0.1600
     11 N         139.7840  139.4508  159.6043 N.ar    1  UNL1       -0.2291
     12 C         139.6714  140.7888  158.9357 C.ar    1  UNL1        0.0985
     13 C         139.6396  140.8790  157.4387 C.3     1  UNL1        0.1454
     14 N         139.7668  140.5185  163.4265 N.pl3   1  UNL1       -0.2908
     15 C         141.0007  140.9254  164.1763 C.3     1  UNL1        0.0960
     16 C         141.0325  140.8353  165.6733 C.3     1  UNL1        0.0650
     17 C         139.8304  140.3383  166.4204 C.3     1  UNL1        0.1694
     18 C         138.5967  139.9314  165.6706 C.3     1  UNL1        0.0650
     19 C         138.5649  140.0215  164.1737 C.3     1  UNL1        0.0960
     20 O         139.8623  140.2481  167.9174 O.3     1  UNL1       -0.4768
     21 C         140.7855  141.1321  168.7025 C.ar    1  UNL1        0.1657
     22 C         140.3403  142.5040  169.1144 C.ar    1  UNL1        0.0415
     23 C         141.2636  143.3879  169.8995 C.ar    1  UNL1        0.0329
     24 C         142.6320  142.8999  170.2727 C.ar    1  UNL1        0.1426
     25 F         143.5553  143.7837  171.0578 F       1  UNL1       -0.2041
     26 C         143.0772  141.5279  169.8608 C.ar    1  UNL1        0.0624
     27 C         142.1539  140.6440  169.0757 C.ar    1  UNL1        0.1760
     28 F         142.5991  139.2721  168.6638 F       1  UNL1       -0.2009
     29 N         139.9283  138.0226  161.7698 N.pl3   1  UNL1       -0.3175
     30 H         139.1820  137.3826  161.7189 H       1  UNL1        0.1482
     31 C         141.1781  137.6598  162.5159 C.3     1  UNL1        0.0706
     32 C         142.5193  137.8627  161.8758 C.3     1  UNL1        0.0212
     33 C         141.0864  137.0940  163.9021 C.3     1  UNL1        0.0212
@<TRIPOS>BOND
     1     1     2    1
     2     2     3    2
     3     2     4   am
     4     4     5    1
     5     5     6    2
     6     6     7    1
     7     7     8   ar
     8     8     9   ar
     9     9    14    1
    10    14    15    1
    11    15    16    1
    12    16    17    1
    13    17    20    1
    14    20    21    1
    15    21    22   ar
    16    22    23   ar
    17    23    24   ar
    18    24    25    1
    19    24    26   ar
    20    26    27   ar
    21    27    28    1
    22    17    18    1
    23    18    19    1
    24     9    10   ar
    25    10    29    1
    26    29    31    1
    27    31    32    1
    28    31    33    1
    29    10    11   ar
    30    11    12   ar
    31    12    13    1
    32    13     4    1
    33    12     7   ar
    34    19    14    1
    35    27    21   ar
    36    29    30    1
@<TRIPOS>MOLECULE
*****
 33 36 0 0 0
SMALL
GASTEIGER

@<TRIPOS>ATOM
      1 C         137.6871  139.8800  170.5585 C.3     1  UNL1        0.0952
      2 C         139.0856  140.1950  170.1170 C.2     1  UNL1        0.2302
      3 O         140.0827  140.7241  171.1048 O.2     1  UNL1       -0.2745
      4 N         139.4871  139.9808  168.6877 N.am    1  UNL1       -0.2515
      5 C         138.4900  139.4517  167.6999 C.2     1  UNL1        0.0695
      6 C         138.8914  139.2375  166.2705 C.2     1  UNL1        0.0366
      7 C         140.2899  139.5525  165.8290 C.ar    1  UNL1        0.0993
      8 N         140.6913  139.3383  164.3997 N.ar    1  UNL1       -0.2265
      9 C         142.0898  139.6533  163.9582 C.ar    1  UNL1        0.1633
     10 C         143.0870  140.1824  164.9460 C.ar    1  UNL1        0.1600
     11 N         142.6855  140.3966  166.3754 N.ar    1  UNL1       -0.2291
     12 C         141.2870  140.0816  166.8169 C.ar    1  UNL1        0.0985
     13 C         140.8855  140.2958  168.2462 C.3     1  UNL1        0.1454
     14 N         142.4912  139.4391  162.5289 N.pl3   1  UNL1       -0.2908
     15 C         142.1213  140.4520  161.4861 C.3     1  UNL1        0.0960
     16 C         142.5227  140.2378  160.0568 C.3     1  UNL1        0.0650
     17 C         143.2941  139.0108  159.6702 C.3     1  UNL1        0.1694
     18 C         143.6640  137.9980  160.7129 C.3     1  UNL1        0.0650
     19 C         143.2626  138.2121  162.1423 C.3     1  UNL1        0.0960
     20 O         143.6955  138.7966  158.2409 O.3     1  UNL1       -0.4768
     21 C         142.7490  138.1285  157.2880 C.ar    1  UNL1        0.1657
     22 C         142.7856  136.6390  157.1153 C.ar    1  UNL1        0.0415
     23 C         141.8390  135.9709  156.1625 C.ar    1  UNL1        0.0329
     24 C         140.8559  136.7924  155.3825 C.ar    1  UNL1        0.1426
     25 F         139.9093  136.1245  154.4297 F       1  UNL1       -0.2041
     26 C         140.8193  138.2821  155.5552 C.ar    1  UNL1        0.0624
     27 C         141.7658  138.9501  156.5080 C.ar    1  UNL1        0.1760
     28 F         141.7293  140.4397  156.6807 F       1  UNL1       -0.2009
     29 N         144.4855  140.4974  164.5045 N.pl3   1  UNL1       -0.3175
     30 H         145.1864  139.8084  164.5608 H       1  UNL1        0.1482
     31 C         144.8161  141.8623  163.9773 C.3     1  UNL1        0.0706
     32 C         144.6386  143.0676  164.8523 C.3     1  UNL1        0.0212
     33 C         145.3242  142.0218  162.5750 C.3     1  UNL1        0.0212
@<TRIPOS>BOND
     1     1     2    1
     2     2     3    2
     3     2     4   am
     4     4     5    1
     5     5     6    2
     6     6     7    1
     7     7     8   ar
     8     8     9   ar
     9     9    14    1
    10    14    15    1
    11    15    16    1
    12    16    17    1
    13    17    20    1
    14    20    21    1
    15    21    22   ar
    16    22    23   ar
    17    23    24   ar
    18    24    25    1
    19    24    26   ar
    20    26    27   ar
    21    27    28    1
    22    17    18    1
    23    18    19    1
    24     9    10   ar
    25    10    29    1
    26    29    31    1
    27    31    32    1
    28    31    33    1
    29    10    11   ar
    30    11    12   ar
    31    12    13    1
    32    13     4    1
    33    12     7   ar
    34    19    14    1
    35    27    21   ar
    36    29    30    1
@<TRIPOS>MOLECULE
*****
 33 36 0 0 0
SMALL
GASTEIGER

@<TRIPOS>ATOM
      1 C         140.1834  146.9079  154.9645 C.3     1  UNL1        0.0952
      2 C         140.0763  145.4518  155.3081 C.2     1  UNL1        0.2302
      3 O         139.9253  144.4330  154.2176 O.2     1  UNL1       -0.2745
      4 N         140.1203  145.0144  156.7422 N.am    1  UNL1       -0.2515
      5 C         140.2713  146.0331  157.8328 C.2     1  UNL1        0.0695
      6 C         140.3152  145.5957  159.2669 C.2     1  UNL1        0.0366
      7 C         140.2081  144.1396  159.6105 C.ar    1  UNL1        0.0993
      8 N         140.2521  143.7022  161.0447 N.ar    1  UNL1       -0.2265
      9 C         140.1450  142.2460  161.3883 C.ar    1  UNL1        0.1633
     10 C         139.9940  141.2272  160.2977 C.ar    1  UNL1        0.1600
     11 N         139.9500  141.6646  158.8636 N.ar    1  UNL1       -0.2291
     12 C         140.0571  143.1208  158.5200 C.ar    1  UNL1        0.0985
     13 C         140.0132  143.5582  157.0859 C.3     1  UNL1        0.1454
     14 N         140.1889  141.8086  162.8224 N.pl3   1  UNL1       -0.2908
     15 C         141.4587  141.2569  163.3997 C.3     1  UNL1        0.0960
     16 C         141.5027  140.8195  164.8338 C.3     1  UNL1        0.0650
     17 C         140.2768  140.9339  165.6907 C.3     1  UNL1        0.1694
     18 C         139.0070  141.4856  165.1134 C.3     1  UNL1        0.0650
     19 C         138.9631  141.9230  163.6793 C.3     1  UNL1        0.0960
     20 O         140.3207  140.4965  167.1248 O.3     1  UNL1       -0.4768
     21 C         141.1040  141.2909  168.1276 C.ar    1  UNL1        0.1657
     22 C         140.5017  142.5157  168.7497 C.ar    1  UNL1        0.0415
     23 C         141.2850  143.3101  169.7524 C.ar    1  UNL1        0.0329
     24 C         142.6707  142.8796  170.1330 C.ar    1  UNL1        0.1426
     25 F         143.4540  143.6739  171.1356 F       1  UNL1       -0.2041
     26 C         143.2729  141.6547  169.5108 C.ar    1  UNL1        0.0624
     27 C         142.4896  140.8604  168.5081 C.ar    1  UNL1        0.1760
     28 F         143.0919  139.6355  167.8859 F       1  UNL1       -0.2009
     29 N         139.8869  139.7710  160.6413 N.pl3   1  UNL1       -0.3175
     30 H         140.6426  139.1661  160.4620 H       1  UNL1        0.1482
     31 C         138.6284  139.2366  161.2583 C.3     1  UNL1        0.0706
     32 C         138.7050  138.3096  162.4351 C.3     1  UNL1        0.0212
     33 C         137.2933  139.6291  160.6983 C.3     1  UNL1        0.0212
@<TRIPOS>BOND
     1     1     2    1
     2     2     3    2
     3     2     4   am
     4     4     5    1
     5     5     6    2
     6     6     7    1
     7     7     8   ar
     8     8     9   ar
     9     9    14    1
    10    14    15    1
    11    15    16    1
    12    16    17    1
    13    17    20    1
    14    20    21    1
    15    21    22   ar
    16    22    23   ar
    17    23    24   ar
    18    24    25    1
    19    24    26   ar
    20    26    27   ar
    21    27    28    1
    22    17    18    1
    23    18    19    1
    24     9    10   ar
    25    10    29    1
    26    29    31    1
    27    31    32    1
    28    31    33    1
    29    10    11   ar
    30    11    12   ar
    31    12    13    1
    32    13     4    1
    33    12     7   ar
    34    19    14    1
    35    27    21   ar
    36    29    30    1
