@<TRIPOS>MOLECULE
*****
 30 32 0 0 0
SMALL
GASTEIGER

@<TRIPOS>ATOM
      1 C         140.7541  140.9312  169.9135 C.3     1  UNL1        0.0975
      2 C         140.7211  141.5600  171.2750 C.3     1  UNL1        0.0781
      3 N         142.0874  142.1061  171.5665 N.3     1  UNL1       -0.2968
      4 C         142.9647  141.8149  170.3852 C.3     1  UNL1        0.0735
      5 C         142.1407  141.0888  169.3636 C.3     1  UNL1        0.0495
      6 H         142.4687  141.6581  172.3998 H       1  UNL1        0.1233
      7 C         142.6193  140.6051  168.0268 C.ar    1  UNL1       -0.0015
      8 C         142.8628  139.1422  167.8018 C.ar    1  UNL1       -0.0012
      9 C         143.3414  138.6585  166.4650 C.ar    1  UNL1        0.0228
     10 C         143.5766  139.6377  165.3532 C.ar    1  UNL1        0.1526
     11 N         143.3331  141.1006  165.5783 N.ar    1  UNL1       -0.2402
     12 C         142.8545  141.5842  166.9151 C.ar    1  UNL1        0.0945
     13 C         144.0552  139.1540  164.0165 C.3     1  UNL1        0.4348
     14 F         144.5339  138.6705  162.6797 F       1  UNL1       -0.1644
     15 F         142.7533  138.4384  163.8093 F       1  UNL1       -0.1644
     16 F         145.3571  139.8698  164.2237 F       1  UNL1       -0.1644
     17 N         139.6629  139.9993  167.7476 N.am    1  UNL1       -0.3004
     18 C         139.6025  140.2624  169.2231 C.2     1  UNL1        0.2240
     19 O         138.3905  139.8566  170.0082 O.2     1  UNL1       -0.2750
     20 H         140.4584  140.2656  167.2323 H       1  UNL1        0.1497
     21 C         138.5114  139.3304  167.0572 C.3     1  UNL1        0.1163
     22 C         138.3999  139.1145  162.5638 C.ar    1  UNL1        0.0479
     23 C         138.8795  137.9370  163.3596 C.ar    1  UNL1        0.0142
     24 C         138.9166  138.0089  164.8574 C.ar    1  UNL1       -0.0014
     25 C         138.4743  139.2585  165.5594 C.ar    1  UNL1       -0.0025
     26 C         137.9947  140.4360  164.7636 C.ar    1  UNL1       -0.0014
     27 C         137.9575  140.3641  163.2658 C.ar    1  UNL1        0.0142
     28 C         139.3726  138.2132  160.3297 C.3     1  UNL1        0.1122
     29 N         138.3627  139.0425  161.0660 N.pl3   1  UNL1       -0.3041
     30 C         137.3157  139.8000  160.3045 C.3     1  UNL1        0.1122
@<TRIPOS>BOND
     1    28    29    1
     2    29    30    1
     3    29    22    1
     4    22    23   ar
     5    23    24   ar
     6    24    25   ar
     7    25    21    1
     8    21    17    1
     9    17    18   am
    10    18    19    2
    11     1    18    1
    12     1     2    1
    13     2     3    1
    14     3     4    1
    15     4     5    1
    16     5     7    1
    17     7     8   ar
    18     8     9   ar
    19     9    10   ar
    20    10    13    1
    21    13    14    1
    22    13    15    1
    23    13    16    1
    24    10    11   ar
    25    11    12   ar
    26    25    26   ar
    27    26    27   ar
    28    27    22   ar
    29     5     1    1
    30    12     7   ar
    31    17    20    1
    32     3     6    1
@<TRIPOS>MOLECULE
*****
 30 32 0 0 0
SMALL
GASTEIGER

@<TRIPOS>ATOM
      1 C         140.5727  141.1462  170.0578 C.3     1  UNL1        0.0975
      2 C         140.8893  141.1241  171.5238 C.3     1  UNL1        0.0781
      3 N         142.0170  142.0823  171.7690 N.3     1  UNL1       -0.2968
      4 C         142.3974  142.6966  170.4545 C.3     1  UNL1        0.0735
      5 C         141.5048  142.1181  169.3969 C.3     1  UNL1        0.0495
      6 H         142.8154  141.5838  172.1622 H       1  UNL1        0.1233
      7 C         141.5383  142.4526  167.9351 C.ar    1  UNL1       -0.0015
      8 C         140.3249  143.0322  167.2703 C.ar    1  UNL1       -0.0012
      9 C         140.3585  143.3668  165.8085 C.ar    1  UNL1        0.0228
     10 C         141.6053  143.1219  165.0114 C.ar    1  UNL1        0.1526
     11 N         142.8187  142.5424  165.6762 N.ar    1  UNL1       -0.2402
     12 C         142.7851  142.2078  167.1380 C.ar    1  UNL1        0.0945
     13 C         141.6389  143.4565  163.5496 C.3     1  UNL1        0.4348
     14 F         141.6724  143.7910  162.0878 F       1  UNL1       -0.1644
     15 F         141.8078  144.9085  163.8858 F       1  UNL1       -0.1644
     16 F         141.4699  142.0044  163.2134 F       1  UNL1       -0.1644
     17 N         139.6978  139.9070  167.9485 N.am    1  UNL1       -0.3004
     18 C         139.5104  140.3383  169.3729 C.2     1  UNL1        0.2240
     19 O         138.2609  139.9619  170.1124 O.2     1  UNL1       -0.2750
     20 H         140.5180  140.1541  167.4632 H       1  UNL1        0.1497
     21 C         138.6357  139.0991  167.2636 C.3     1  UNL1        0.1163
     22 C         138.4355  138.9948  162.7693 C.ar    1  UNL1        0.0479
     23 C         138.8230  137.7625  163.5316 C.ar    1  UNL1        0.0142
     24 C         138.8897  137.7972  165.0297 C.ar    1  UNL1       -0.0014
     25 C         138.5689  139.0643  165.7655 C.ar    1  UNL1       -0.0025
     26 C         138.1814  140.2967  165.0032 C.ar    1  UNL1       -0.0014
     27 C         138.1147  140.2619  163.5051 C.ar    1  UNL1        0.0142
     28 C         137.2672  139.6811  160.5526 C.3     1  UNL1        0.1122
     29 N         138.3688  138.9601  161.2712 N.pl3   1  UNL1       -0.3041
     30 C         139.4037  138.2042  160.4917 C.3     1  UNL1        0.1122
@<TRIPOS>BOND
     1    28    29    1
     2    29    30    1
     3    29    22    1
     4    22    23   ar
     5    23    24   ar
     6    24    25   ar
     7    25    21    1
     8    21    17    1
     9    17    18   am
    10    18    19    2
    11     1    18    1
    12     1     2    1
    13     2     3    1
    14     3     4    1
    15     4     5    1
    16     5     7    1
    17     7     8   ar
    18     8     9   ar
    19     9    10   ar
    20    10    13    1
    21    13    14    1
    22    13    15    1
    23    13    16    1
    24    10    11   ar
    25    11    12   ar
    26    25    26   ar
    27    26    27   ar
    28    27    22   ar
    29     5     1    1
    30    12     7   ar
    31    17    20    1
    32     3     6    1
@<TRIPOS>MOLECULE
*****
 30 32 0 0 0
SMALL
GASTEIGER

@<TRIPOS>ATOM
      1 C         143.9290  142.5977  159.7944 C.3     1  UNL1        0.0975
      2 C         144.5821  142.6187  158.4442 C.3     1  UNL1        0.0781
      3 N         143.7707  143.5091  157.5505 N.3     1  UNL1       -0.2968
      4 C         142.6160  144.0385  158.3484 C.3     1  UNL1        0.0735
      5 C         142.7139  143.4752  159.7352 C.3     1  UNL1        0.0495
      6 H         143.4247  142.9761  156.7526 H       1  UNL1        0.1233
      7 C         141.7634  143.7425  160.8644 C.ar    1  UNL1       -0.0015
      8 C         142.2203  144.5250  162.0599 C.ar    1  UNL1       -0.0012
      9 C         141.2699  144.7923  163.1892 C.ar    1  UNL1        0.0228
     10 C         139.8626  144.2772  163.1230 C.ar    1  UNL1        0.1526
     11 N         139.4058  143.4948  161.9275 N.ar    1  UNL1       -0.2402
     12 C         140.3562  143.2275  160.7983 C.ar    1  UNL1        0.0945
     13 C         138.9122  144.5445  164.2523 C.3     1  UNL1        0.4348
     14 F         137.9617  144.8118  165.3814 F       1  UNL1       -0.1644
     15 F         140.0353  144.3891  165.2343 F       1  UNL1       -0.1644
     16 F         137.7890  144.6998  163.2701 F       1  UNL1       -0.1644
     17 N         145.1927  142.5317  162.0635 N.am    1  UNL1       -0.3004
     18 C         144.4070  141.8334  160.9934 C.2     1  UNL1        0.2240
     19 O         144.0994  140.3710  161.1221 O.2     1  UNL1       -0.2750
     20 H         145.3946  143.4915  161.9790 H       1  UNL1        0.1497
     21 C         145.6708  141.7674  163.2624 C.3     1  UNL1        0.1163
     22 C         142.7497  140.5315  166.4545 C.ar    1  UNL1        0.0479
     23 C         143.0062  141.9865  166.1953 C.ar    1  UNL1        0.0142
     24 C         143.9799  142.3985  165.1312 C.ar    1  UNL1       -0.0014
     25 C         144.6971  141.3555  164.3264 C.ar    1  UNL1       -0.0025
     26 C         144.4406  139.9005  164.5857 C.ar    1  UNL1       -0.0014
     27 C         143.4669  139.4886  165.6497 C.ar    1  UNL1        0.0142
     28 C         140.3010  140.2182  167.2643 C.3     1  UNL1        0.1122
     29 N         141.7760  140.1196  167.5186 N.pl3   1  UNL1       -0.3041
     30 C         142.2773  139.6090  168.8369 C.3     1  UNL1        0.1122
@<TRIPOS>BOND
     1    28    29    1
     2    29    30    1
     3    29    22    1
     4    22    23   ar
     5    23    24   ar
     6    24    25   ar
     7    25    21    1
     8    21    17    1
     9    17    18   am
    10    18    19    2
    11     1    18    1
    12     1     2    1
    13     2     3    1
    14     3     4    1
    15     4     5    1
    16     5     7    1
    17     7     8   ar
    18     8     9   ar
    19     9    10   ar
    20    10    13    1
    21    13    14    1
    22    13    15    1
    23    13    16    1
    24    10    11   ar
    25    11    12   ar
    26    25    26   ar
    27    26    27   ar
    28    27    22   ar
    29     5     1    1
    30    12     7   ar
    31    17    20    1
    32     3     6    1
@<TRIPOS>MOLECULE
*****
 30 32 0 0 0
SMALL
GASTEIGER

@<TRIPOS>ATOM
      1 C         142.1132  144.1111  158.9955 C.3     1  UNL1        0.0975
      2 C         142.0591  144.6714  157.6051 C.3     1  UNL1        0.0781
      3 N         143.1253  143.9986  156.7924 N.3     1  UNL1       -0.2968
      4 C         143.8383  143.0224  157.6806 C.3     1  UNL1        0.0735
      5 C         143.2128  143.0920  159.0421 C.3     1  UNL1        0.0495
      6 H         143.7845  144.6939  156.4427 H       1  UNL1        0.1233
      7 C         143.6161  142.2842  160.2400 C.ar    1  UNL1       -0.0015
      8 C         144.5707  142.8582  161.2447 C.ar    1  UNL1       -0.0012
      9 C         144.9740  142.0505  162.4426 C.ar    1  UNL1        0.0228
     10 C         144.4229  140.6688  162.6357 C.ar    1  UNL1        0.1526
     11 N         143.4684  140.0949  161.6310 N.ar    1  UNL1       -0.2402
     12 C         143.0650  140.9026  160.4332 C.ar    1  UNL1        0.0945
     13 C         144.8262  139.8610  163.8336 C.3     1  UNL1        0.4348
     14 F         145.2296  139.0534  165.0314 F       1  UNL1       -0.1644
     15 F         143.8253  138.8080  163.4605 F       1  UNL1       -0.1644
     16 F         145.8272  140.9142  164.2067 F       1  UNL1       -0.1644
     17 N         141.7991  145.2115  161.3280 N.am    1  UNL1       -0.3004
     18 C         141.2237  144.5014  160.1386 C.2     1  UNL1        0.2240
     19 O         139.7590  144.1817  160.0922 O.2     1  UNL1       -0.2750
     20 H         142.7605  145.4213  161.3584 H       1  UNL1        0.1497
     21 C         140.9098  145.6018  162.4711 C.3     1  UNL1        0.1163
     22 C         140.5689  142.9253  166.0725 C.ar    1  UNL1        0.0479
     23 C         141.8191  142.9120  165.2437 C.ar    1  UNL1        0.0142
     24 C         141.9327  143.8041  164.0433 C.ar    1  UNL1       -0.0014
     25 C         140.7961  144.7097  163.6716 C.ar    1  UNL1       -0.0025
     26 C         139.5460  144.7230  164.5003 C.ar    1  UNL1       -0.0014
     27 C         139.4324  143.8308  165.7008 C.ar    1  UNL1        0.0142
     28 C         140.1520  140.5747  167.0975 C.3     1  UNL1        0.1122
     29 N         140.4553  142.0331  167.2730 N.pl3   1  UNL1       -0.3041
     30 C         140.6449  142.5994  168.6489 C.3     1  UNL1        0.1122
@<TRIPOS>BOND
     1    28    29    1
     2    29    30    1
     3    29    22    1
     4    22    23   ar
     5    23    24   ar
     6    24    25   ar
     7    25    21    1
     8    21    17    1
     9    17    18   am
    10    18    19    2
    11     1    18    1
    12     1     2    1
    13     2     3    1
    14     3     4    1
    15     4     5    1
    16     5     7    1
    17     7     8   ar
    18     8     9   ar
    19     9    10   ar
    20    10    13    1
    21    13    14    1
    22    13    15    1
    23    13    16    1
    24    10    11   ar
    25    11    12   ar
    26    25    26   ar
    27    26    27   ar
    28    27    22   ar
    29     5     1    1
    30    12     7   ar
    31    17    20    1
    32     3     6    1
@<TRIPOS>MOLECULE
*****
 30 32 0 0 0
SMALL
GASTEIGER

@<TRIPOS>ATOM
      1 C         139.8757  140.6398  168.2623 C.3     1  UNL1        0.0975
      2 C         139.1976  140.5323  169.5960 C.3     1  UNL1        0.0781
      3 N         139.5146  141.7720  170.3786 N.3     1  UNL1       -0.2968
      4 C         140.3887  142.6459  169.5285 C.3     1  UNL1        0.0735
      5 C         140.6118  141.9461  168.2207 C.3     1  UNL1        0.0495
      6 H         140.0049  141.5232  171.2377 H       1  UNL1        0.1233
      7 C         141.4278  142.4621  167.0727 C.ar    1  UNL1       -0.0015
      8 C         142.9221  142.3331  167.0969 C.ar    1  UNL1       -0.0012
      9 C         143.7381  142.8491  165.9490 C.ar    1  UNL1        0.0228
     10 C         143.0600  143.4941  164.7767 C.ar    1  UNL1        0.1526
     11 N         141.5657  143.6231  164.7525 N.ar    1  UNL1       -0.2402
     12 C         140.7497  143.1071  165.9005 C.ar    1  UNL1        0.0945
     13 C         143.8760  144.0101  163.6287 C.3     1  UNL1        0.4348
     14 F         144.6919  144.5262  162.4808 F       1  UNL1       -0.1644
     15 F         143.7492  142.6826  162.9420 F       1  UNL1       -0.1644
     16 F         144.0027  145.3377  164.3155 F       1  UNL1       -0.1644
     17 N         138.5055  139.0842  166.6963 N.am    1  UNL1       -0.3004
     18 C         139.8263  139.6201  167.1633 C.2     1  UNL1        0.2240
     19 O         141.0978  139.1364  166.5314 O.2     1  UNL1       -0.2750
     20 H         137.6710  139.4017  167.1110 H       1  UNL1        0.1497
     21 C         138.4561  138.0645  165.5973 C.3     1  UNL1        0.1163
     22 C         138.8655  139.3588  161.3069 C.ar    1  UNL1        0.0479
     23 C         139.2883  137.9796  161.7178 C.ar    1  UNL1        0.0142
     24 C         139.1518  137.5481  163.1480 C.ar    1  UNL1       -0.0014
     25 C         138.5926  138.4960  164.1672 C.ar    1  UNL1       -0.0025
     26 C         138.1698  139.8752  163.7563 C.ar    1  UNL1       -0.0014
     27 C         138.3063  140.3067  162.3261 C.ar    1  UNL1        0.0142
     28 C         139.7743  138.9440  158.9086 C.3     1  UNL1        0.1122
     29 N         139.0020  139.7903  159.8768 N.pl3   1  UNL1       -0.3041
     30 C         138.3663  141.0679  159.4149 C.3     1  UNL1        0.1122
@<TRIPOS>BOND
     1    28    29    1
     2    29    30    1
     3    29    22    1
     4    22    23   ar
     5    23    24   ar
     6    24    25   ar
     7    25    21    1
     8    21    17    1
     9    17    18   am
    10    18    19    2
    11     1    18    1
    12     1     2    1
    13     2     3    1
    14     3     4    1
    15     4     5    1
    16     5     7    1
    17     7     8   ar
    18     8     9   ar
    19     9    10   ar
    20    10    13    1
    21    13    14    1
    22    13    15    1
    23    13    16    1
    24    10    11   ar
    25    11    12   ar
    26    25    26   ar
    27    26    27   ar
    28    27    22   ar
    29     5     1    1
    30    12     7   ar
    31    17    20    1
    32     3     6    1
@<TRIPOS>MOLECULE
*****
 30 32 0 0 0
SMALL
GASTEIGER

@<TRIPOS>ATOM
      1 C         139.3654  139.0384  160.7081 C.3     1  UNL1        0.0975
      2 C         139.3310  138.4248  159.3398 C.3     1  UNL1        0.0781
      3 N         138.9205  139.4884  158.3650 N.3     1  UNL1       -0.2968
      4 C         138.7013  140.7594  159.1310 C.3     1  UNL1        0.0735
      5 C         138.9763  140.4812  160.5791 C.3     1  UNL1        0.0495
      6 H         138.0574  139.2137  157.8960 H       1  UNL1        0.1233
      7 C         138.8791  141.4720  161.7011 C.ar    1  UNL1       -0.0015
      8 C         137.7353  141.3993  162.6689 C.ar    1  UNL1       -0.0012
      9 C         137.6381  142.3900  163.7909 C.ar    1  UNL1        0.0228
     10 C         138.6847  143.4535  163.9452 C.ar    1  UNL1        0.1526
     11 N         139.8285  143.5261  162.9775 N.ar    1  UNL1       -0.2402
     12 C         139.9256  142.5354  161.8555 C.ar    1  UNL1        0.0945
     13 C         138.5876  144.4442  165.0673 C.3     1  UNL1        0.4348
     14 F         138.4906  145.4350  166.1893 F       1  UNL1       -0.1644
     15 F         137.0937  144.3102  165.0563 F       1  UNL1       -0.1644
     16 F         140.0816  144.5782  165.0783 F       1  UNL1       -0.1644
     17 N         141.1457  138.3368  162.4656 N.am    1  UNL1       -0.3004
     18 C         139.7258  138.3328  161.9819 C.2     1  UNL1        0.2240
     19 O         138.6664  137.6235  162.7720 O.2     1  UNL1       -0.2750
     20 H         141.8411  138.8024  161.9470 H       1  UNL1        0.1497
     21 C         141.5061  137.6313  163.7393 C.3     1  UNL1        0.1163
     22 C         141.6319  139.9119  167.6165 C.ar    1  UNL1        0.0479
     23 C         142.8473  139.1720  167.1418 C.ar    1  UNL1        0.0142
     24 C         142.8054  138.4118  165.8494 C.ar    1  UNL1       -0.0014
     25 C         141.5481  138.3915  165.0317 C.ar    1  UNL1       -0.0025
     26 C         140.3327  139.1313  165.5064 C.ar    1  UNL1       -0.0014
     27 C         140.3746  139.8915  166.7988 C.ar    1  UNL1        0.0142
     28 C         140.4069  140.9279  169.6700 C.3     1  UNL1        0.1122
     29 N         141.6739  140.6720  168.9090 N.pl3   1  UNL1       -0.3041
     30 C         142.9828  141.1763  169.4403 C.3     1  UNL1        0.1122
@<TRIPOS>BOND
     1    28    29    1
     2    29    30    1
     3    29    22    1
     4    22    23   ar
     5    23    24   ar
     6    24    25   ar
     7    25    21    1
     8    21    17    1
     9    17    18   am
    10    18    19    2
    11     1    18    1
    12     1     2    1
    13     2     3    1
    14     3     4    1
    15     4     5    1
    16     5     7    1
    17     7     8   ar
    18     8     9   ar
    19     9    10   ar
    20    10    13    1
    21    13    14    1
    22    13    15    1
    23    13    16    1
    24    10    11   ar
    25    11    12   ar
    26    25    26   ar
    27    26    27   ar
    28    27    22   ar
    29     5     1    1
    30    12     7   ar
    31    17    20    1
    32     3     6    1
@<TRIPOS>MOLECULE
*****
 30 32 0 0 0
SMALL
GASTEIGER

@<TRIPOS>ATOM
      1 C         139.8766  139.1247  160.7936 C.3     1  UNL1        0.0975
      2 C         139.7209  138.4292  159.4737 C.3     1  UNL1        0.0781
      3 N         138.8355  139.2739  158.6063 N.3     1  UNL1       -0.2968
      4 C         138.4440  140.4915  159.3900 C.3     1  UNL1        0.0735
      5 C         139.0875  140.3993  160.7419 C.3     1  UNL1        0.0495
      6 H         138.0018  138.7472  158.3457 H       1  UNL1        0.1233
      7 C         138.9635  141.4051  161.8478 C.ar    1  UNL1       -0.0015
      8 C         137.8697  141.2699  162.8653 C.ar    1  UNL1       -0.0012
      9 C         137.7457  142.2756  163.9712 C.ar    1  UNL1        0.0228
     10 C         138.7155  143.4166  164.0596 C.ar    1  UNL1        0.1526
     11 N         139.8092  143.5518  163.0421 N.ar    1  UNL1       -0.2402
     12 C         139.9332  142.5460  161.9362 C.ar    1  UNL1        0.0945
     13 C         138.5915  144.4224  165.1655 C.3     1  UNL1        0.4348
     14 F         138.4675  145.4282  166.2714 F       1  UNL1       -0.1644
     15 F         140.0864  144.5074  165.2558 F       1  UNL1       -0.1644
     16 F         137.0966  144.3374  165.0752 F       1  UNL1       -0.1644
     17 N         141.8104  139.4606  162.4960 N.am    1  UNL1       -0.3004
     18 C         140.6804  138.6321  161.9604 C.2     1  UNL1        0.2240
     19 O         140.3543  137.3110  162.5915 O.2     1  UNL1       -0.2750
     20 H         142.0244  140.3277  162.0817 H       1  UNL1        0.1497
     21 C         142.6141  138.9681  163.6627 C.3     1  UNL1        0.1163
     22 C         141.2942  139.9068  167.8611 C.ar    1  UNL1        0.0479
     23 C         140.3648  140.1533  166.7099 C.ar    1  UNL1        0.0142
     24 C         140.8048  139.8404  165.3104 C.ar    1  UNL1       -0.0014
     25 C         142.1742  139.2810  165.0621 C.ar    1  UNL1       -0.0025
     26 C         143.1036  139.0345  166.2133 C.ar    1  UNL1       -0.0014
     27 C         142.6637  139.3474  167.6128 C.ar    1  UNL1        0.0142
     28 C         139.4044  140.4693  169.5528 C.3     1  UNL1        0.1122
     29 N         140.8543  140.2197  169.2605 N.pl3   1  UNL1       -0.3041
     30 C         141.8642  140.2831  170.3678 C.3     1  UNL1        0.1122
@<TRIPOS>BOND
     1    28    29    1
     2    29    30    1
     3    29    22    1
     4    22    23   ar
     5    23    24   ar
     6    24    25   ar
     7    25    21    1
     8    21    17    1
     9    17    18   am
    10    18    19    2
    11     1    18    1
    12     1     2    1
    13     2     3    1
    14     3     4    1
    15     4     5    1
    16     5     7    1
    17     7     8   ar
    18     8     9   ar
    19     9    10   ar
    20    10    13    1
    21    13    14    1
    22    13    15    1
    23    13    16    1
    24    10    11   ar
    25    11    12   ar
    26    25    26   ar
    27    26    27   ar
    28    27    22   ar
    29     5     1    1
    30    12     7   ar
    31    17    20    1
    32     3     6    1
@<TRIPOS>MOLECULE
*****
 30 32 0 0 0
SMALL
GASTEIGER

@<TRIPOS>ATOM
      1 C         140.5645  143.0555  161.7475 C.3     1  UNL1        0.0975
      2 C         140.4718  143.9232  160.5275 C.3     1  UNL1        0.0781
      3 N         139.2053  143.5726  159.8044 N.3     1  UNL1       -0.2968
      4 C         138.5152  142.4880  160.5776 C.3     1  UNL1        0.0735
      5 C         139.3553  142.1685  161.7784 C.3     1  UNL1        0.0495
      6 H         139.4235  143.2424  158.8643 H       1  UNL1        0.1233
      7 C         139.0412  141.1421  162.8262 C.ar    1  UNL1       -0.0015
      8 C         138.8456  141.5624  164.2529 C.ar    1  UNL1       -0.0012
      9 C         138.5316  140.5360  165.3007 C.ar    1  UNL1        0.0228
     10 C         138.4131  139.0894  164.9220 C.ar    1  UNL1        0.1526
     11 N         138.6088  138.6692  163.4954 N.ar    1  UNL1       -0.2402
     12 C         138.9228  139.6956  162.4476 C.ar    1  UNL1        0.0945
     13 C         138.0991  138.0630  165.9698 C.3     1  UNL1        0.4348
     14 F         137.7851  137.0366  167.0175 F       1  UNL1       -0.1644
     15 F         137.3378  139.0930  166.7505 F       1  UNL1       -0.1644
     16 F         138.8604  137.0330  165.1890 F       1  UNL1       -0.1644
     17 N         142.4577  141.8234  163.0312 N.am    1  UNL1       -0.3004
     18 C         141.6721  143.0719  162.7591 C.2     1  UNL1        0.2240
     19 O         141.9939  144.3367  163.4983 O.2     1  UNL1       -0.2750
     20 H         142.2465  140.9933  162.5460 H       1  UNL1        0.1497
     21 C         143.5653  141.8398  164.0427 C.3     1  UNL1        0.1163
     22 C         142.7412  140.6411  168.3011 C.ar    1  UNL1        0.0479
     23 C         142.9860  142.0814  167.9614 C.ar    1  UNL1        0.0142
     24 C         143.2607  142.4810  166.5419 C.ar    1  UNL1       -0.0014
     25 C         143.2906  141.4402  165.4622 C.ar    1  UNL1       -0.0025
     26 C         143.0458  139.9999  165.8019 C.ar    1  UNL1       -0.0014
     27 C         142.7711  139.6003  167.2214 C.ar    1  UNL1        0.0142
     28 C         142.1347  141.2873  170.7433 C.3     1  UNL1        0.1122
     29 N         142.4666  140.2415  169.7206 N.pl3   1  UNL1       -0.3041
     30 C         142.5238  138.7961  170.1173 C.3     1  UNL1        0.1122
@<TRIPOS>BOND
     1    28    29    1
     2    29    30    1
     3    29    22    1
     4    22    23   ar
     5    23    24   ar
     6    24    25   ar
     7    25    21    1
     8    21    17    1
     9    17    18   am
    10    18    19    2
    11     1    18    1
    12     1     2    1
    13     2     3    1
    14     3     4    1
    15     4     5    1
    16     5     7    1
    17     7     8   ar
    18     8     9   ar
    19     9    10   ar
    20    10    13    1
    21    13    14    1
    22    13    15    1
    23    13    16    1
    24    10    11   ar
    25    11    12   ar
    26    25    26   ar
    27    26    27   ar
    28    27    22   ar
    29     5     1    1
    30    12     7   ar
    31    17    20    1
    32     3     6    1
@<TRIPOS>MOLECULE
*****
 30 32 0 0 0
SMALL
GASTEIGER

@<TRIPOS>ATOM
      1 C         139.3338  140.0169  168.3045 C.3     1  UNL1        0.0975
      2 C         138.6573  140.0277  169.6432 C.3     1  UNL1        0.0781
      3 N         139.6466  140.5181  170.6586 N.3     1  UNL1       -0.2968
      4 C         140.9345  140.8103  169.9473 C.3     1  UNL1        0.0735
      5 C         140.7412  140.5005  168.4924 C.3     1  UNL1        0.0495
      6 H         139.7980  139.8015  171.3685 H       1  UNL1        0.1233
      7 C         141.7740  140.6484  167.4147 C.ar    1  UNL1       -0.0015
      8 C         142.3892  139.4297  166.7931 C.ar    1  UNL1       -0.0012
      9 C         143.4220  139.5776  165.7154 C.ar    1  UNL1        0.0228
     10 C         143.8396  140.9442  165.2593 C.ar    1  UNL1        0.1526
     11 N         143.2245  142.1628  165.8809 N.ar    1  UNL1       -0.2402
     12 C         142.1917  142.0149  166.9586 C.ar    1  UNL1        0.0945
     13 C         144.8724  141.0921  164.1816 C.3     1  UNL1        0.4348
     14 F         145.9052  141.2401  163.1039 F       1  UNL1       -0.1644
     15 F         144.5823  139.6973  163.7121 F       1  UNL1       -0.1644
     16 F         145.1625  142.4870  164.6511 F       1  UNL1       -0.1644
     17 N         138.8544  140.4637  165.7904 N.am    1  UNL1       -0.3004
     18 C         138.7121  139.5962  167.0058 C.2     1  UNL1        0.2240
     19 O         137.9480  138.3081  166.9225 O.2     1  UNL1       -0.2750
     20 H         139.3559  141.3091  165.8451 H       1  UNL1        0.1497
     21 C         138.2327  140.0431  164.4918 C.3     1  UNL1        0.1163
     22 C         140.8394  138.6796  161.0865 C.ar    1  UNL1        0.0479
     23 C         141.4195  139.5201  162.1852 C.ar    1  UNL1        0.0142
     24 C         140.5506  139.9746  163.3202 C.ar    1  UNL1       -0.0014
     25 C         139.1016  139.5886  163.3567 C.ar    1  UNL1       -0.0025
     26 C         138.5215  138.7482  162.2580 C.ar    1  UNL1       -0.0014
     27 C         139.3904  138.2937  161.1229 C.ar    1  UNL1        0.0142
     28 C         141.2652  138.4407  158.5347 C.3     1  UNL1        0.1122
     29 N         141.7084  138.2251  159.9514 N.pl3   1  UNL1       -0.3041
     30 C         143.0204  137.5550  160.2330 C.3     1  UNL1        0.1122
@<TRIPOS>BOND
     1    28    29    1
     2    29    30    1
     3    29    22    1
     4    22    23   ar
     5    23    24   ar
     6    24    25   ar
     7    25    21    1
     8    21    17    1
     9    17    18   am
    10    18    19    2
    11     1    18    1
    12     1     2    1
    13     2     3    1
    14     3     4    1
    15     4     5    1
    16     5     7    1
    17     7     8   ar
    18     8     9   ar
    19     9    10   ar
    20    10    13    1
    21    13    14    1
    22    13    15    1
    23    13    16    1
    24    10    11   ar
    25    11    12   ar
    26    25    26   ar
    27    26    27   ar
    28    27    22   ar
    29     5     1    1
    30    12     7   ar
    31    17    20    1
    32     3     6    1
