@<TRIPOS>MOLECULE
*****
 29 31 0 0 0
SMALL
GASTEIGER

@<TRIPOS>ATOM
      1 C         140.2358  140.8983  165.0994 C.ar    1  UNL1        0.2030
      2 C         140.2747  142.2582  165.7311 C.ar    1  UNL1        0.0646
      3 C         141.5920  142.8885  166.0739 C.ar    1  UNL1        0.0115
      4 C         142.8703  142.1589  165.7850 C.ar    1  UNL1        0.0646
      5 C         142.8314  140.7989  165.1533 C.ar    1  UNL1        0.2030
      6 N         141.5141  140.1686  164.8105 N.ar    1  UNL1       -0.1706
      7 C         141.4752  138.8087  164.1788 C.3     1  UNL1        0.4076
      8 C         138.9185  140.2680  164.7566 C.3     1  UNL1        0.1006
      9 C         138.0878  139.6339  165.8327 C.3     1  UNL1        0.0584
     10 C         138.7538  138.9237  166.9738 C.3     1  UNL1        0.2060
     11 O         138.8549  139.5886  168.3146 O.3     1  UNL1       -0.4754
     12 C         143.9116  142.4060  169.8927 C.3     1  UNL1        0.0310
     13 C         142.6474  141.7017  169.4982 C.ar    1  UNL1       -0.0217
     14 C         141.3183  142.3506  169.7473 C.ar    1  UNL1       -0.0011
     15 C         140.0541  141.6462  169.3528 C.ar    1  UNL1        0.0366
     16 C         140.1191  140.2929  168.7091 C.ar    1  UNL1        0.1385
     17 C         141.4482  139.6440  168.4600 C.ar    1  UNL1        0.0366
     18 C         142.7124  140.3484  168.8545 C.ar    1  UNL1       -0.0011
     19 C         144.1097  140.0693  164.8644 C.3     1  UNL1        0.1006
     20 C         144.8389  140.3147  163.5768 C.3     1  UNL1        0.0584
     21 C         145.5988  141.5925  163.3769 C.3     1  UNL1        0.2060
     22 O         145.1262  142.5961  162.3673 O.3     1  UNL1       -0.4754
     23 C         143.7897  143.2564  162.5350 C.ar    1  UNL1        0.1385
     24 C         143.6932  144.5944  163.2063 C.ar    1  UNL1        0.0366
     25 C         142.3569  145.2547  163.3740 C.ar    1  UNL1       -0.0011
     26 C         141.1170  144.5770  162.8705 C.ar    1  UNL1       -0.0217
     27 C         139.7807  145.2373  163.0382 C.3     1  UNL1        0.0310
     28 C         141.2135  143.2391  162.1992 C.ar    1  UNL1       -0.0011
     29 C         142.5499  142.5788  162.0315 C.ar    1  UNL1        0.0366
@<TRIPOS>UNITY_ATOM_ATTR
6 1
charge 1
@<TRIPOS>BOND
     1    12    13    1
     2    13    14   ar
     3    14    15   ar
     4    15    16   ar
     5    16    11    1
     6    11    10    1
     7    10     9    1
     8     9     8    1
     9     8     1    1
    10     1     2   ar
    11     2     3   ar
    12     3     4   ar
    13     4     5   ar
    14     5    19    1
    15    19    20    1
    16    20    21    1
    17    21    22    1
    18    22    23    1
    19    23    24   ar
    20    24    25   ar
    21    25    26   ar
    22    26    27    1
    23    26    28   ar
    24    28    29   ar
    25     5     6   ar
    26     6     7    1
    27    16    17   ar
    28    17    18   ar
    29    18    13   ar
    30     6     1   ar
    31    29    23   ar
@<TRIPOS>MOLECULE
*****
 29 31 0 0 0
SMALL
GASTEIGER

@<TRIPOS>ATOM
      1 C         138.4025  141.9485  163.6540 C.ar    1  UNL1        0.2030
      2 C         138.8226  142.1938  165.0729 C.ar    1  UNL1        0.0646
      3 C         139.3261  143.5460  165.4829 C.ar    1  UNL1        0.0115
      4 C         139.4096  144.6528  164.4740 C.ar    1  UNL1        0.0646
      5 C         138.9895  144.4075  163.0550 C.ar    1  UNL1        0.2030
      6 N         138.4859  143.0554  162.6451 N.ar    1  UNL1       -0.1706
      7 C         138.0658  142.8100  161.2262 C.3     1  UNL1        0.4076
      8 C         137.8989  140.5963  163.2440 C.3     1  UNL1        0.1006
      9 C         138.8259  139.6195  162.5832 C.3     1  UNL1        0.0584
     10 C         138.6522  138.1474  162.8132 C.3     1  UNL1        0.2060
     11 O         139.2033  137.5122  164.0552 O.3     1  UNL1       -0.4754
     12 C         139.7091  140.7252  169.0971 C.3     1  UNL1        0.0310
     13 C         139.5826  139.9220  167.8367 C.ar    1  UNL1       -0.0217
     14 C         138.2857  139.2452  167.5056 C.ar    1  UNL1       -0.0011
     15 C         138.1592  138.4419  166.2451 C.ar    1  UNL1        0.0366
     16 C         139.3298  138.3155  165.3157 C.ar    1  UNL1        0.1385
     17 C         140.6267  138.9923  165.6468 C.ar    1  UNL1        0.0366
     18 C         140.7532  139.7955  166.9073 C.ar    1  UNL1       -0.0011
     19 C         139.0729  145.5143  162.0461 C.3     1  UNL1        0.1006
     20 C         140.3996  145.8959  161.4594 C.3     1  UNL1        0.0584
     21 C         141.0943  144.9667  160.5087 C.3     1  UNL1        0.2060
     22 O         142.4281  144.3832  160.8702 O.3     1  UNL1       -0.4754
     23 C         142.6716  143.8725  162.2594 C.ar    1  UNL1        0.1385
     24 C         143.4842  144.6833  163.2249 C.ar    1  UNL1        0.0366
     25 C         143.7277  144.1727  164.6141 C.ar    1  UNL1       -0.0011
     26 C         143.1585  142.8511  165.0379 C.ar    1  UNL1       -0.0217
     27 C         143.4020  142.3404  166.4271 C.3     1  UNL1        0.0310
     28 C         142.3459  142.0402  164.0724 C.ar    1  UNL1       -0.0011
     29 C         142.1024  142.5510  162.6832 C.ar    1  UNL1        0.0366
@<TRIPOS>UNITY_ATOM_ATTR
6 1
charge 1
@<TRIPOS>BOND
     1    12    13    1
     2    13    14   ar
     3    14    15   ar
     4    15    16   ar
     5    16    11    1
     6    11    10    1
     7    10     9    1
     8     9     8    1
     9     8     1    1
    10     1     2   ar
    11     2     3   ar
    12     3     4   ar
    13     4     5   ar
    14     5    19    1
    15    19    20    1
    16    20    21    1
    17    21    22    1
    18    22    23    1
    19    23    24   ar
    20    24    25   ar
    21    25    26   ar
    22    26    27    1
    23    26    28   ar
    24    28    29   ar
    25     5     6   ar
    26     6     7    1
    27    16    17   ar
    28    17    18   ar
    29    18    13   ar
    30     6     1   ar
    31    29    23   ar
@<TRIPOS>MOLECULE
*****
 29 31 0 0 0
SMALL
GASTEIGER

@<TRIPOS>ATOM
      1 C         140.1759  144.0473  165.0647 C.ar    1  UNL1        0.2030
      2 C         140.3594  142.9783  166.1008 C.ar    1  UNL1        0.0646
      3 C         141.6871  142.2958  166.2472 C.ar    1  UNL1        0.0115
      4 C         142.8312  142.6822  165.3575 C.ar    1  UNL1        0.0646
      5 C         142.6477  143.7513  164.3213 C.ar    1  UNL1        0.2030
      6 N         141.3201  144.4338  164.1749 N.ar    1  UNL1       -0.1706
      7 C         141.1366  145.5028  163.1389 C.3     1  UNL1        0.4076
      8 C         138.8482  144.7299  164.9183 C.3     1  UNL1        0.1006
      9 C         137.7191  144.0318  164.2198 C.3     1  UNL1        0.0584
     10 C         137.9299  143.4436  162.8561 C.3     1  UNL1        0.2060
     11 O         137.3059  142.1261  162.5029 O.3     1  UNL1       -0.4754
     12 C         139.2375  137.0908  165.1326 C.3     1  UNL1        0.0310
     13 C         138.7546  138.3497  164.4752 C.ar    1  UNL1       -0.0217
     14 C         138.5408  138.3862  162.9910 C.ar    1  UNL1       -0.0011
     15 C         138.0579  139.6451  162.3335 C.ar    1  UNL1        0.0366
     16 C         137.7888  140.8673  163.1603 C.ar    1  UNL1        0.1385
     17 C         138.0026  140.8307  164.6445 C.ar    1  UNL1        0.0366
     18 C         138.4854  139.5719  165.3020 C.ar    1  UNL1       -0.0011
     19 C         143.7919  144.1377  163.4317 C.3     1  UNL1        0.1006
     20 C         143.8833  143.5797  162.0424 C.3     1  UNL1        0.0584
     21 C         142.8540  142.6024  161.5574 C.3     1  UNL1        0.2060
     22 O         143.1800  141.1396  161.4934 O.3     1  UNL1       -0.4754
     23 C         143.3570  140.3546  162.7594 C.ar    1  UNL1        0.1385
     24 C         144.7203  140.2112  163.3685 C.ar    1  UNL1        0.0366
     25 C         144.8973  139.4262  164.6343 C.ar    1  UNL1       -0.0011
     26 C         143.7111  138.7846  165.2911 C.ar    1  UNL1       -0.0217
     27 C         143.8882  137.9996  166.5570 C.3     1  UNL1        0.0310
     28 C         142.3479  138.9280  164.6820 C.ar    1  UNL1       -0.0011
     29 C         142.1709  139.7130  163.4161 C.ar    1  UNL1        0.0366
@<TRIPOS>UNITY_ATOM_ATTR
6 1
charge 1
@<TRIPOS>BOND
     1    12    13    1
     2    13    14   ar
     3    14    15   ar
     4    15    16   ar
     5    16    11    1
     6    11    10    1
     7    10     9    1
     8     9     8    1
     9     8     1    1
    10     1     2   ar
    11     2     3   ar
    12     3     4   ar
    13     4     5   ar
    14     5    19    1
    15    19    20    1
    16    20    21    1
    17    21    22    1
    18    22    23    1
    19    23    24   ar
    20    24    25   ar
    21    25    26   ar
    22    26    27    1
    23    26    28   ar
    24    28    29   ar
    25     5     6   ar
    26     6     7    1
    27    16    17   ar
    28    17    18   ar
    29    18    13   ar
    30     6     1   ar
    31    29    23   ar
@<TRIPOS>MOLECULE
*****
 29 31 0 0 0
SMALL
GASTEIGER

@<TRIPOS>ATOM
      1 C         142.3196  141.9444  164.7674 C.ar    1  UNL1        0.2030
      2 C         141.2885  142.3838  165.7643 C.ar    1  UNL1        0.0646
      3 C         140.4399  143.5885  165.4841 C.ar    1  UNL1        0.0115
      4 C         140.6224  144.3539  164.2071 C.ar    1  UNL1        0.0646
      5 C         141.6536  143.9146  163.2102 C.ar    1  UNL1        0.2030
      6 N         142.5022  142.7098  163.4903 N.ar    1  UNL1       -0.1706
      7 C         143.5333  142.2705  162.4935 C.3     1  UNL1        0.4076
      8 C         143.1682  140.7397  165.0476 C.3     1  UNL1        0.1006
      9 C         142.5468  139.5022  165.6243 C.3     1  UNL1        0.0584
     10 C         143.2796  138.7108  166.6667 C.3     1  UNL1        0.2060
     11 O         142.9751  138.9218  168.1202 O.3     1  UNL1       -0.4754
     12 C         140.3111  143.9867  169.9229 C.3     1  UNL1        0.0310
     13 C         140.9771  142.7205  169.4722 C.ar    1  UNL1       -0.0217
     14 C         142.4662  142.6775  169.2974 C.ar    1  UNL1       -0.0011
     15 C         143.1322  141.4112  168.8467 C.ar    1  UNL1        0.0366
     16 C         142.3091  140.1880  168.5709 C.ar    1  UNL1        0.1385
     17 C         140.8200  140.2310  168.7457 C.ar    1  UNL1        0.0366
     18 C         140.1540  141.4973  169.1963 C.ar    1  UNL1       -0.0011
     19 C         141.8360  144.6800  161.9331 C.3     1  UNL1        0.1006
     20 C         140.6510  144.9847  161.0655 C.3     1  UNL1        0.0584
     21 C         140.0194  143.8961  160.2493 C.3     1  UNL1        0.2060
     22 O         138.6909  143.3297  160.6546 O.3     1  UNL1       -0.4754
     23 C         138.5892  142.4463  161.8626 C.ar    1  UNL1        0.1385
     24 C         137.5974  142.7635  162.9423 C.ar    1  UNL1        0.0366
     25 C         137.4957  141.8802  164.1504 C.ar    1  UNL1       -0.0011
     26 C         138.3858  140.6796  164.2788 C.ar    1  UNL1       -0.0217
     27 C         138.2841  139.7964  165.4868 C.3     1  UNL1        0.0310
     28 C         139.3776  140.3625  163.1991 C.ar    1  UNL1       -0.0011
     29 C         139.4793  141.2459  161.9910 C.ar    1  UNL1        0.0366
@<TRIPOS>UNITY_ATOM_ATTR
6 1
charge 1
@<TRIPOS>BOND
     1    12    13    1
     2    13    14   ar
     3    14    15   ar
     4    15    16   ar
     5    16    11    1
     6    11    10    1
     7    10     9    1
     8     9     8    1
     9     8     1    1
    10     1     2   ar
    11     2     3   ar
    12     3     4   ar
    13     4     5   ar
    14     5    19    1
    15    19    20    1
    16    20    21    1
    17    21    22    1
    18    22    23    1
    19    23    24   ar
    20    24    25   ar
    21    25    26   ar
    22    26    27    1
    23    26    28   ar
    24    28    29   ar
    25     5     6   ar
    26     6     7    1
    27    16    17   ar
    28    17    18   ar
    29    18    13   ar
    30     6     1   ar
    31    29    23   ar
@<TRIPOS>MOLECULE
*****
 29 31 0 0 0
SMALL
GASTEIGER

@<TRIPOS>ATOM
      1 C         138.9949  144.3074  163.3599 C.ar    1  UNL1        0.2030
      2 C         139.5431  144.6591  164.7111 C.ar    1  UNL1        0.0646
      3 C         139.7078  143.5938  165.7542 C.ar    1  UNL1        0.0115
      4 C         139.3245  142.1768  165.4460 C.ar    1  UNL1        0.0646
      5 C         138.7763  141.8250  164.0948 C.ar    1  UNL1        0.2030
      6 N         138.6115  142.8903  163.0517 N.ar    1  UNL1       -0.1706
      7 C         138.0634  142.5386  161.7005 C.3     1  UNL1        0.4076
      8 C         138.8301  145.3727  162.3169 C.3     1  UNL1        0.1006
      9 C         140.0387  145.9882  161.6760 C.3     1  UNL1        0.0584
     10 C         140.7483  145.2685  160.5676 C.3     1  UNL1        0.2060
     11 O         142.1206  144.7075  160.7954 O.3     1  UNL1       -0.4754
     12 C         143.5779  142.4247  166.1494 C.3     1  UNL1        0.0310
     13 C         143.2136  142.9954  164.8109 C.ar    1  UNL1       -0.0217
     14 C         143.5677  144.4148  164.4792 C.ar    1  UNL1       -0.0011
     15 C         143.2034  144.9855  163.1407 C.ar    1  UNL1        0.0366
     16 C         142.4850  144.1368  162.1339 C.ar    1  UNL1        0.1385
     17 C         142.1309  142.7175  162.4656 C.ar    1  UNL1        0.0366
     18 C         142.4952  142.1468  163.8041 C.ar    1  UNL1       -0.0011
     19 C         138.3929  140.4079  163.7866 C.3     1  UNL1        0.1006
     20 C         138.6343  139.3284  164.7997 C.3     1  UNL1        0.0584
     21 C         138.7249  137.8964  164.3626 C.3     1  UNL1        0.2060
     22 O         139.8591  137.4492  163.4887 O.3     1  UNL1       -0.4754
     23 C         141.2397  137.9898  163.7166 C.ar    1  UNL1        0.1385
     24 C         141.7481  138.1832  165.1144 C.ar    1  UNL1        0.0366
     25 C         143.1286  138.7237  165.3423 C.ar    1  UNL1       -0.0011
     26 C         144.0008  139.0710  164.1723 C.ar    1  UNL1       -0.0217
     27 C         145.3813  139.6115  164.4001 C.3     1  UNL1        0.0310
     28 C         143.4923  138.8776  162.7744 C.ar    1  UNL1       -0.0011
     29 C         142.1117  138.3370  162.5465 C.ar    1  UNL1        0.0366
@<TRIPOS>UNITY_ATOM_ATTR
6 1
charge 1
@<TRIPOS>BOND
     1    12    13    1
     2    13    14   ar
     3    14    15   ar
     4    15    16   ar
     5    16    11    1
     6    11    10    1
     7    10     9    1
     8     9     8    1
     9     8     1    1
    10     1     2   ar
    11     2     3   ar
    12     3     4   ar
    13     4     5   ar
    14     5    19    1
    15    19    20    1
    16    20    21    1
    17    21    22    1
    18    22    23    1
    19    23    24   ar
    20    24    25   ar
    21    25    26   ar
    22    26    27    1
    23    26    28   ar
    24    28    29   ar
    25     5     6   ar
    26     6     7    1
    27    16    17   ar
    28    17    18   ar
    29    18    13   ar
    30     6     1   ar
    31    29    23   ar
@<TRIPOS>MOLECULE
*****
 29 31 0 0 0
SMALL
GASTEIGER

@<TRIPOS>ATOM
      1 C         140.2392  138.1463  162.3338 C.ar    1  UNL1        0.2030
      2 C         140.0075  137.3929  163.6100 C.ar    1  UNL1        0.0646
      3 C         141.0666  137.3729  164.6720 C.ar    1  UNL1        0.0115
      4 C         142.3574  138.1062  164.4579 C.ar    1  UNL1        0.0646
      5 C         142.5892  138.8597  163.1817 C.ar    1  UNL1        0.2030
      6 N         141.5301  138.8797  162.1197 N.ar    1  UNL1       -0.1706
      7 C         141.7618  139.6331  160.8435 C.3     1  UNL1        0.4076
      8 C         139.1801  138.1663  161.2718 C.3     1  UNL1        0.1006
      9 C         137.8216  138.7240  161.5778 C.3     1  UNL1        0.0584
     10 C         137.5608  140.1927  161.4196 C.3     1  UNL1        0.2060
     11 O         137.4214  141.0646  162.6322 O.3     1  UNL1       -0.4754
     12 C         141.6624  141.0016  166.8760 C.3     1  UNL1        0.0310
     13 C         140.6022  141.0173  165.8151 C.ar    1  UNL1       -0.0217
     14 C         140.8561  141.7142  164.5113 C.ar    1  UNL1       -0.0011
     15 C         139.7959  141.7299  163.4503 C.ar    1  UNL1        0.0366
     16 C         138.4817  141.0488  163.6931 C.ar    1  UNL1        0.1385
     17 C         138.2278  140.3520  164.9969 C.ar    1  UNL1        0.0366
     18 C         139.2880  140.3362  166.0579 C.ar    1  UNL1       -0.0011
     19 C         143.8800  139.5930  162.9676 C.3     1  UNL1        0.1006
     20 C         144.5450  140.2920  164.1161 C.3     1  UNL1        0.0584
     21 C         145.6663  141.2550  163.8604 C.3     1  UNL1        0.2060
     22 O         145.5220  142.3110  162.8049 O.3     1  UNL1       -0.4754
     23 C         144.2802  143.1506  162.7488 C.ar    1  UNL1        0.1385
     24 C         143.9330  144.0536  163.8951 C.ar    1  UNL1        0.0366
     25 C         142.6913  144.8931  163.8390 C.ar    1  UNL1       -0.0011
     26 C         141.7967  144.8297  162.6365 C.ar    1  UNL1       -0.0217
     27 C         140.5549  145.6693  162.5804 C.3     1  UNL1        0.0310
     28 C         142.1439  143.9267  161.4902 C.ar    1  UNL1       -0.0011
     29 C         143.3857  143.0871  161.5464 C.ar    1  UNL1        0.0366
@<TRIPOS>UNITY_ATOM_ATTR
6 1
charge 1
@<TRIPOS>BOND
     1    12    13    1
     2    13    14   ar
     3    14    15   ar
     4    15    16   ar
     5    16    11    1
     6    11    10    1
     7    10     9    1
     8     9     8    1
     9     8     1    1
    10     1     2   ar
    11     2     3   ar
    12     3     4   ar
    13     4     5   ar
    14     5    19    1
    15    19    20    1
    16    20    21    1
    17    21    22    1
    18    22    23    1
    19    23    24   ar
    20    24    25   ar
    21    25    26   ar
    22    26    27    1
    23    26    28   ar
    24    28    29   ar
    25     5     6   ar
    26     6     7    1
    27    16    17   ar
    28    17    18   ar
    29    18    13   ar
    30     6     1   ar
    31    29    23   ar
@<TRIPOS>MOLECULE
*****
 29 31 0 0 0
SMALL
GASTEIGER

@<TRIPOS>ATOM
      1 C         143.4031  139.9698  163.6570 C.ar    1  UNL1        0.2030
      2 C         143.8202  139.5137  165.0237 C.ar    1  UNL1        0.0646
      3 C         143.0705  138.4085  165.7068 C.ar    1  UNL1        0.0115
      4 C         141.9037  137.7595  165.0233 C.ar    1  UNL1        0.0646
      5 C         141.4866  138.2156  163.6565 C.ar    1  UNL1        0.2030
      6 N         142.2363  139.3207  162.9733 N.ar    1  UNL1       -0.1706
      7 C         141.8192  139.7768  161.6066 C.3     1  UNL1        0.4076
      8 C         144.1528  141.0749  162.9739 C.3     1  UNL1        0.1006
      9 C         144.0438  142.4816  163.4831 C.3     1  UNL1        0.0584
     10 C         144.5221  143.6245  162.6375 C.3     1  UNL1        0.2060
     11 O         143.5361  144.6034  162.0723 O.3     1  UNL1       -0.4754
     12 C         137.6959  144.0433  163.3288 C.3     1  UNL1        0.0310
     13 C         139.1560  144.1833  163.0147 C.ar    1  UNL1       -0.0217
     14 C         140.0399  145.0031  163.9072 C.ar    1  UNL1       -0.0011
     15 C         141.5000  145.1431  163.5931 C.ar    1  UNL1        0.0366
     16 C         142.0761  144.4634  162.3864 C.ar    1  UNL1        0.1385
     17 C         141.1921  143.6437  161.4939 C.ar    1  UNL1        0.0366
     18 C         139.7321  143.5036  161.8080 C.ar    1  UNL1       -0.0011
     19 C         140.3198  137.5666  162.9729 C.3     1  UNL1        0.1006
     20 C         138.9267  137.8120  163.4720 C.3     1  UNL1        0.0584
     21 C         138.4279  139.2162  163.6433 C.3     1  UNL1        0.2060
     22 O         138.2076  139.7713  165.0193 O.3     1  UNL1       -0.4754
     23 C         139.3535  140.3729  165.7776 C.ar    1  UNL1        0.1385
     24 C         139.6794  139.8831  167.1575 C.ar    1  UNL1        0.0366
     25 C         140.8252  140.4847  167.9158 C.ar    1  UNL1       -0.0011
     26 C         141.6453  141.5761  167.2943 C.ar    1  UNL1       -0.0217
     27 C         142.7912  142.1777  168.0526 C.3     1  UNL1        0.0310
     28 C         141.3195  142.0660  165.9144 C.ar    1  UNL1       -0.0011
     29 C         140.1736  141.4643  165.1561 C.ar    1  UNL1        0.0366
@<TRIPOS>UNITY_ATOM_ATTR
6 1
charge 1
@<TRIPOS>BOND
     1    12    13    1
     2    13    14   ar
     3    14    15   ar
     4    15    16   ar
     5    16    11    1
     6    11    10    1
     7    10     9    1
     8     9     8    1
     9     8     1    1
    10     1     2   ar
    11     2     3   ar
    12     3     4   ar
    13     4     5   ar
    14     5    19    1
    15    19    20    1
    16    20    21    1
    17    21    22    1
    18    22    23    1
    19    23    24   ar
    20    24    25   ar
    21    25    26   ar
    22    26    27    1
    23    26    28   ar
    24    28    29   ar
    25     5     6   ar
    26     6     7    1
    27    16    17   ar
    28    17    18   ar
    29    18    13   ar
    30     6     1   ar
    31    29    23   ar
@<TRIPOS>MOLECULE
*****
 29 31 0 0 0
SMALL
GASTEIGER

@<TRIPOS>ATOM
      1 C         139.5628  141.8161  164.4152 C.ar    1  UNL1        0.2030
      2 C         138.9479  142.8377  165.3253 C.ar    1  UNL1        0.0646
      3 C         139.2482  144.2942  165.1294 C.ar    1  UNL1        0.0115
      4 C         140.1634  144.7292  164.0235 C.ar    1  UNL1        0.0646
      5 C         140.7783  143.7076  163.1133 C.ar    1  UNL1        0.2030
      6 N         140.4780  142.2511  163.3092 N.ar    1  UNL1       -0.1706
      7 C         141.0929  141.2295  162.3991 C.3     1  UNL1        0.4076
      8 C         139.2624  140.3596  164.6111 C.3     1  UNL1        0.1006
      9 C         138.3591  139.9235  165.7264 C.3     1  UNL1        0.0584
     10 C         138.9027  139.0914  166.8499 C.3     1  UNL1        0.2060
     11 O         139.0117  139.6722  168.2286 O.3     1  UNL1       -0.4754
     12 C         144.0233  142.5178  169.8977 C.3     1  UNL1        0.0310
     13 C         142.7704  141.8064  169.4804 C.ar    1  UNL1       -0.0217
     14 C         142.7231  140.3071  169.4825 C.ar    1  UNL1       -0.0011
     15 C         141.4702  139.5957  169.0652 C.ar    1  UNL1        0.0366
     16 C         140.2646  140.3836  168.6459 C.ar    1  UNL1        0.1385
     17 C         140.3119  141.8828  168.6439 C.ar    1  UNL1        0.0366
     18 C         141.5649  142.5942  169.0611 C.ar    1  UNL1       -0.0011
     19 C         141.6935  144.1426  162.0073 C.3     1  UNL1        0.1006
     20 C         143.1787  144.1382  162.2174 C.3     1  UNL1        0.0584
     21 C         143.7822  144.9528  163.3230 C.3     1  UNL1        0.2060
     22 O         144.4246  144.2693  164.4935 O.3     1  UNL1       -0.4754
     23 C         144.1556  142.8167  164.7540 C.ar    1  UNL1        0.1385
     24 C         143.0290  142.4130  165.6584 C.ar    1  UNL1        0.0366
     25 C         142.7600  140.9605  165.9189 C.ar    1  UNL1       -0.0011
     26 C         143.6176  139.9117  165.2751 C.ar    1  UNL1       -0.0217
     27 C         143.3486  138.4592  165.5356 C.3     1  UNL1        0.0310
     28 C         144.7442  140.3153  164.3707 C.ar    1  UNL1       -0.0011
     29 C         145.0132  141.7679  164.1102 C.ar    1  UNL1        0.0366
@<TRIPOS>UNITY_ATOM_ATTR
6 1
charge 1
@<TRIPOS>BOND
     1    12    13    1
     2    13    14   ar
     3    14    15   ar
     4    15    16   ar
     5    16    11    1
     6    11    10    1
     7    10     9    1
     8     9     8    1
     9     8     1    1
    10     1     2   ar
    11     2     3   ar
    12     3     4   ar
    13     4     5   ar
    14     5    19    1
    15    19    20    1
    16    20    21    1
    17    21    22    1
    18    22    23    1
    19    23    24   ar
    20    24    25   ar
    21    25    26   ar
    22    26    27    1
    23    26    28   ar
    24    28    29   ar
    25     5     6   ar
    26     6     7    1
    27    16    17   ar
    28    17    18   ar
    29    18    13   ar
    30     6     1   ar
    31    29    23   ar
@<TRIPOS>MOLECULE
*****
 29 31 0 0 0
SMALL
GASTEIGER

@<TRIPOS>ATOM
      1 C         141.6322  139.1200  164.3115 C.ar    1  UNL1        0.2030
      2 C         142.2992  138.5897  165.5460 C.ar    1  UNL1        0.0646
      3 C         143.7816  138.7382  165.7201 C.ar    1  UNL1        0.0115
      4 C         144.5971  139.4168  164.6598 C.ar    1  UNL1        0.0646
      5 C         143.9302  139.9471  163.4252 C.ar    1  UNL1        0.2030
      6 N         142.4477  139.7987  163.2511 N.ar    1  UNL1       -0.1706
      7 C         141.7807  140.3289  162.0166 C.3     1  UNL1        0.4076
      8 C         140.1498  138.9715  164.1374 C.3     1  UNL1        0.1006
      9 C         139.2289  139.2358  165.2916 C.3     1  UNL1        0.0584
     10 C         138.0431  140.1370  165.1138 C.3     1  UNL1        0.2060
     11 O         137.6871  140.6477  163.7491 O.3     1  UNL1       -0.4754
     12 C         139.5643  146.0683  161.9904 C.3     1  UNL1        0.0310
     13 C         139.0950  144.7132  162.4301 C.ar    1  UNL1       -0.0217
     14 C         139.3519  143.5139  161.5666 C.ar    1  UNL1       -0.0011
     15 C         138.8826  142.1587  162.0063 C.ar    1  UNL1        0.0366
     16 C         138.1564  142.0029  163.3095 C.ar    1  UNL1        0.1385
     17 C         137.8994  143.2022  164.1729 C.ar    1  UNL1        0.0366
     18 C         138.3687  144.5573  163.7332 C.ar    1  UNL1       -0.0011
     19 C         144.7456  140.6258  162.3649 C.3     1  UNL1        0.1006
     20 C         145.3801  141.9561  162.6434 C.3     1  UNL1        0.0584
     21 C         144.5844  143.2165  162.4752 C.3     1  UNL1        0.2060
     22 O         144.1549  143.9988  163.6808 O.3     1  UNL1       -0.4754
     23 C         143.3067  143.3488  164.7336 C.ar    1  UNL1        0.1385
     24 C         141.8331  143.1793  164.5103 C.ar    1  UNL1        0.0366
     25 C         140.9849  142.5294  165.5629 C.ar    1  UNL1       -0.0011
     26 C         141.6103  142.0488  166.8389 C.ar    1  UNL1       -0.0217
     27 C         140.7621  141.3989  167.8916 C.3     1  UNL1        0.0310
     28 C         143.0839  142.2183  167.0622 C.ar    1  UNL1       -0.0011
     29 C         143.9321  142.8683  166.0095 C.ar    1  UNL1        0.0366
@<TRIPOS>UNITY_ATOM_ATTR
6 1
charge 1
@<TRIPOS>BOND
     1    12    13    1
     2    13    14   ar
     3    14    15   ar
     4    15    16   ar
     5    16    11    1
     6    11    10    1
     7    10     9    1
     8     9     8    1
     9     8     1    1
    10     1     2   ar
    11     2     3   ar
    12     3     4   ar
    13     4     5   ar
    14     5    19    1
    15    19    20    1
    16    20    21    1
    17    21    22    1
    18    22    23    1
    19    23    24   ar
    20    24    25   ar
    21    25    26   ar
    22    26    27    1
    23    26    28   ar
    24    28    29   ar
    25     5     6   ar
    26     6     7    1
    27    16    17   ar
    28    17    18   ar
    29    18    13   ar
    30     6     1   ar
    31    29    23   ar
