@<TRIPOS>MOLECULE
*****
 35 38 0 0 0
SMALL
GASTEIGER

@<TRIPOS>ATOM
      1 C         138.6035  142.0296  163.5974 C.3     1  UNL1        0.1166
      2 N         137.3486  141.6128  162.8894 N.3     1  UNL1       -0.3162
      3 C         139.8748  142.7677  163.8957 C.3     1  UNL1        0.0739
      4 C         140.6632  142.4360  165.1278 C.3     1  UNL1        0.2039
      5 N         140.1803  141.3661  166.0618 N.pl3   1  UNL1       -0.1931
      6 C         138.9090  140.6280  165.7636 C.3     1  UNL1        0.2039
      7 C         138.1206  140.9598  164.5313 C.3     1  UNL1        0.0739
      8 H         137.2366  142.1676  162.0409 H       1  UNL1        0.1192
      9 H         136.5468  141.7627  163.5019 H       1  UNL1        0.1192
     10 C         140.9688  141.0344  167.2940 C.2     1  UNL1        0.3205
     11 N         141.7577  139.7602  167.3592 N.2     1  UNL1        0.0097
     12 C         142.5461  139.4285  168.5913 C.2     1  UNL1        0.4717
     13 N         142.5457  140.3709  169.7584 N.2     1  UNL1        0.0158
     14 C         141.7568  141.6450  169.6932 C.2     1  UNL1        0.3714
     15 N         141.5671  142.7596  170.6790 N.2     1  UNL1       -0.0339
     16 C         140.6614  143.7802  170.0560 C.2     1  UNL1        0.2323
     17 C         140.2914  143.2964  168.6852 C.2     1  UNL1        0.0486
     18 C         140.9684  141.9768  168.4610 C.3     1  UNL1        0.2428
     19 N         139.7564  142.8314  161.4116 N.am    1  UNL1       -0.2940
     20 C         138.6506  142.9547  162.4176 C.2     1  UNL1        0.2356
     21 O         137.5920  144.0030  162.2437 O.2     1  UNL1       -0.2737
     22 H         140.4512  142.1433  161.5257 H       1  UNL1        0.1502
     23 C         139.8036  143.7565  160.2317 C.3     1  UNL1        0.1713
     24 C         139.2957  143.2966  158.8974 C.ar    1  UNL1        0.0043
     25 C         138.3849  142.1079  158.8105 C.ar    1  UNL1       -0.0013
     26 C         137.8771  141.6481  157.4761 C.ar    1  UNL1        0.0111
     27 C         138.2799  142.3768  156.2285 C.ar    1  UNL1        0.0577
     28 CL        137.7721  141.9171  154.8942 Cl      1  UNL1       -0.0822
     29 C         139.1907  143.5655  156.3153 C.ar    1  UNL1        0.0111
     30 C         139.6986  144.0254  157.6497 C.ar    1  UNL1       -0.0013
     31 N         141.8219  145.3913  160.1709 N.am    1  UNL1       -0.3272
     32 C         140.3586  145.1414  160.3863 C.2     1  UNL1        0.2416
     33 O         139.4504  146.2764  160.7562 O.2     1  UNL1       -0.2732
     34 H         142.1862  146.3002  160.2724 H       1  UNL1        0.1450
     35 H         142.4180  144.6463  159.9282 H       1  UNL1        0.1450
@<TRIPOS>BOND
     1    31    32   am
     2    32    33    2
     3    32    23    1
     4    23    19    1
     5    19    20   am
     6    20    21    2
     7    20     1    1
     8     1     2    1
     9     1     3    1
    10     3     4    1
    11     4     5    1
    12     5    10    1
    13    10    11    2
    14    11    12    1
    15    12    13    2
    16    13    14    1
    17    14    15    2
    18    15    16    1
    19    16    17    2
    20    17    18    1
    21     5     6    1
    22     6     7    1
    23    23    24    1
    24    24    25   ar
    25    25    26   ar
    26    26    27   ar
    27    27    28    1
    28    27    29   ar
    29    29    30   ar
    30     7     1    1
    31    30    24   ar
    32    18    10    1
    33    18    14    1
    34    31    34    1
    35    31    35    1
    36    19    22    1
    37     2     8    1
    38     2     9    1
@<TRIPOS>MOLECULE
*****
 35 38 0 0 0
SMALL
GASTEIGER

@<TRIPOS>ATOM
      1 C         143.9262  140.0916  164.4933 C.3     1  UNL1        0.1166
      2 N         144.4992  139.0839  163.5414 N.3     1  UNL1       -0.3162
      3 C         143.4494  141.4064  165.0356 C.3     1  UNL1        0.0739
      4 C         142.8943  141.4870  166.4267 C.3     1  UNL1        0.2039
      5 N         142.8160  140.2528  167.2757 N.pl3   1  UNL1       -0.1931
      6 C         143.2928  138.9380  166.7335 C.3     1  UNL1        0.2039
      7 C         143.8478  138.8574  165.3422 C.3     1  UNL1        0.0739
      8 H         144.7448  139.5450  162.6654 H       1  UNL1        0.1192
      9 H         143.8081  138.3559  163.3603 H       1  UNL1        0.1192
     10 C         142.2610  140.3335  168.6669 C.2     1  UNL1        0.3205
     11 N         143.1732  140.6189  169.8229 N.2     1  UNL1        0.0097
     12 C         142.6182  140.6996  171.2141 C.2     1  UNL1        0.4717
     13 N         141.1509  140.4948  171.4493 N.2     1  UNL1        0.0158
     14 C         140.2387  140.2094  170.2932 C.2     1  UNL1        0.3714
     15 N         138.7607  139.9652  170.2175 N.2     1  UNL1       -0.0339
     16 C         138.4022  139.7336  168.7795 C.2     1  UNL1        0.2323
     17 C         139.6587  139.8347  167.9665 C.2     1  UNL1        0.0486
     18 C         140.7938  140.1287  168.9020 C.3     1  UNL1        0.2428
     19 N         143.0655  141.5470  162.5208 N.am    1  UNL1       -0.2940
     20 C         144.2034  140.9758  163.3138 C.2     1  UNL1        0.2356
     21 O         145.6185  141.2888  162.9273 O.2     1  UNL1       -0.2737
     22 H         142.1367  141.3415  162.7745 H       1  UNL1        0.1502
     23 C         143.3427  142.4313  161.3413 C.3     1  UNL1        0.1713
     24 C         143.6824  141.8242  160.0123 C.ar    1  UNL1        0.0043
     25 C         144.6086  142.5410  159.0751 C.ar    1  UNL1       -0.0013
     26 C         144.9483  141.9339  157.7462 C.ar    1  UNL1        0.0111
     27 C         144.3618  140.6101  157.3544 C.ar    1  UNL1        0.0577
     28 CL        144.7014  140.0031  156.0255 Cl      1  UNL1       -0.0822
     29 C         143.4355  139.8934  158.2916 C.ar    1  UNL1        0.0111
     30 C         143.0958  140.5004  159.6205 C.ar    1  UNL1       -0.0013
     31 N         142.2416  144.7080  160.7461 N.am    1  UNL1       -0.3272
     32 C         143.2801  143.9225  161.4907 C.2     1  UNL1        0.2416
     33 O         144.2561  144.6282  162.3848 O.2     1  UNL1       -0.2732
     34 H         142.2006  145.6867  160.8442 H       1  UNL1        0.1450
     35 H         141.6011  144.2448  160.1592 H       1  UNL1        0.1450
@<TRIPOS>BOND
     1    31    32   am
     2    32    33    2
     3    32    23    1
     4    23    19    1
     5    19    20   am
     6    20    21    2
     7    20     1    1
     8     1     2    1
     9     1     3    1
    10     3     4    1
    11     4     5    1
    12     5    10    1
    13    10    11    2
    14    11    12    1
    15    12    13    2
    16    13    14    1
    17    14    15    2
    18    15    16    1
    19    16    17    2
    20    17    18    1
    21     5     6    1
    22     6     7    1
    23    23    24    1
    24    24    25   ar
    25    25    26   ar
    26    26    27   ar
    27    27    28    1
    28    27    29   ar
    29    29    30   ar
    30     7     1    1
    31    30    24   ar
    32    18    10    1
    33    18    14    1
    34    31    34    1
    35    31    35    1
    36    19    22    1
    37     2     8    1
    38     2     9    1
@<TRIPOS>MOLECULE
*****
 35 38 0 0 0
SMALL
GASTEIGER

@<TRIPOS>ATOM
      1 C         141.8151  144.5407  162.7024 C.3     1  UNL1        0.1166
      2 N         141.5041  145.1157  164.0524 N.3     1  UNL1       -0.3162
      3 C         142.4608  143.6944  161.6455 C.3     1  UNL1        0.0739
      4 C         142.0351  143.8288  160.2135 C.3     1  UNL1        0.2039
      5 N         140.9637  144.8094  159.8383 N.pl3   1  UNL1       -0.1931
      6 C         140.3181  145.6557  160.8952 C.3     1  UNL1        0.2039
      7 C         140.7438  145.5213  162.3273 C.3     1  UNL1        0.0739
      8 H         142.0958  144.6727  164.7552 H       1  UNL1        0.1192
      9 H         140.5238  144.9453  164.2769 H       1  UNL1        0.1192
     10 C         140.5380  144.9437  158.4063 C.2     1  UNL1        0.3205
     11 N         141.1240  146.0254  157.5480 N.2     1  UNL1        0.0097
     12 C         140.6984  146.1597  156.1160 C.2     1  UNL1        0.4717
     13 N         139.6867  145.2124  155.5422 N.2     1  UNL1        0.0158
     14 C         139.1007  144.1307  156.4005 C.2     1  UNL1        0.3714
     15 N         138.0920  143.0582  156.1141 N.2     1  UNL1       -0.0339
     16 C         137.8942  142.2610  157.3693 C.2     1  UNL1        0.2323
     17 C         138.7807  142.8408  158.4313 C.2     1  UNL1        0.0486
     18 C         139.5264  143.9964  157.8325 C.3     1  UNL1        0.2428
     19 N         142.5426  142.2999  163.7974 N.am    1  UNL1       -0.2940
     20 C         142.7784  143.7598  163.5464 C.2     1  UNL1        0.2356
     21 O         143.9774  144.4387  164.1392 O.2     1  UNL1       -0.2737
     22 H         141.7557  141.8543  163.4084 H       1  UNL1        0.1502
     23 C         143.5059  141.5189  164.6414 C.3     1  UNL1        0.1713
     24 C         143.2098  141.2814  166.0926 C.ar    1  UNL1        0.0043
     25 C         143.2722  142.4201  167.0669 C.ar    1  UNL1       -0.0013
     26 C         142.9761  142.1825  168.5181 C.ar    1  UNL1        0.0111
     27 C         142.6176  140.8063  168.9950 C.ar    1  UNL1        0.0577
     28 CL        142.3215  140.5688  170.4460 Cl      1  UNL1       -0.0822
     29 C         142.5552  139.6676  168.0206 C.ar    1  UNL1        0.0111
     30 C         142.8513  139.9051  166.5694 C.ar    1  UNL1       -0.0013
     31 N         145.9580  141.8675  163.8567 N.am    1  UNL1       -0.3272
     32 C         144.7652  140.9754  164.0341 C.2     1  UNL1        0.2416
     33 O         144.8317  139.5398  163.6043 O.2     1  UNL1       -0.2732
     34 H         146.7845  141.5108  163.4582 H       1  UNL1        0.1450
     35 H         145.9144  142.8097  164.1389 H       1  UNL1        0.1450
@<TRIPOS>BOND
     1    31    32   am
     2    32    33    2
     3    32    23    1
     4    23    19    1
     5    19    20   am
     6    20    21    2
     7    20     1    1
     8     1     2    1
     9     1     3    1
    10     3     4    1
    11     4     5    1
    12     5    10    1
    13    10    11    2
    14    11    12    1
    15    12    13    2
    16    13    14    1
    17    14    15    2
    18    15    16    1
    19    16    17    2
    20    17    18    1
    21     5     6    1
    22     6     7    1
    23    23    24    1
    24    24    25   ar
    25    25    26   ar
    26    26    27   ar
    27    27    28    1
    28    27    29   ar
    29    29    30   ar
    30     7     1    1
    31    30    24   ar
    32    18    10    1
    33    18    14    1
    34    31    34    1
    35    31    35    1
    36    19    22    1
    37     2     8    1
    38     2     9    1
@<TRIPOS>MOLECULE
*****
 35 38 0 0 0
SMALL
GASTEIGER

@<TRIPOS>ATOM
      1 C         138.4173  141.8154  163.2888 C.3     1  UNL1        0.1166
      2 N         137.1868  141.5197  162.4838 N.3     1  UNL1       -0.3162
      3 C         139.7036  142.4609  163.7119 C.3     1  UNL1        0.0739
      4 C         140.4024  141.9965  164.9552 C.3     1  UNL1        0.2039
      5 N         139.8150  140.8864  165.7756 N.pl3   1  UNL1       -0.1931
      6 C         138.5288  140.2409  165.3526 C.3     1  UNL1        0.2039
      7 C         137.8300  140.7054  164.1092 C.3     1  UNL1        0.0739
      8 H         137.1511  142.1418  161.6763 H       1  UNL1        0.1192
      9 H         136.3592  141.6652  163.0620 H       1  UNL1        0.1192
     10 C         140.5138  140.4220  167.0189 C.2     1  UNL1        0.3205
     11 N         139.9845  140.8123  168.3671 N.2     1  UNL1        0.0097
     12 C         140.6833  140.3479  169.6104 C.2     1  UNL1        0.4717
     13 N         141.9115  139.4931  169.5057 N.2     1  UNL1        0.0158
     14 C         142.4408  139.1028  168.1575 C.2     1  UNL1        0.3714
     15 N         143.6218  138.2756  167.7440 N.2     1  UNL1       -0.0339
     16 C         143.6529  138.2289  166.2451 C.2     1  UNL1        0.2323
     17 C         142.4911  139.0271  165.7322 C.2     1  UNL1        0.0486
     18 C         141.7420  139.5673  166.9142 C.3     1  UNL1        0.2428
     19 N         139.5828  142.5908  161.1002 N.am    1  UNL1       -0.2940
     20 C         138.5774  142.8227  162.1890 C.2     1  UNL1        0.2356
     21 O         137.7321  144.0618  162.1778 O.2     1  UNL1       -0.2737
     22 H         140.1376  141.7775  161.1075 H       1  UNL1        0.1502
     23 C         139.7430  143.5981  160.0003 C.3     1  UNL1        0.1713
     24 C         139.2245  143.2961  158.6255 C.ar    1  UNL1        0.0043
     25 C         138.1093  142.3094  158.4444 C.ar    1  UNL1       -0.0013
     26 C         137.5909  142.0075  157.0696 C.ar    1  UNL1        0.0111
     27 C         138.1877  142.6922  155.8759 C.ar    1  UNL1        0.0577
     28 CL        137.6693  142.3903  154.5011 Cl      1  UNL1       -0.0822
     29 C         139.3028  143.6788  156.0569 C.ar    1  UNL1        0.0111
     30 C         139.8213  143.9808  157.4317 C.ar    1  UNL1       -0.0013
     31 N         139.6385  146.0527  160.8451 N.am    1  UNL1       -0.3272
     32 C         140.4215  144.9072  160.2752 C.2     1  UNL1        0.2416
     33 O         141.8831  145.0709  159.9801 O.2     1  UNL1       -0.2732
     34 H         140.0838  146.9120  161.0256 H       1  UNL1        0.1450
     35 H         138.6792  145.9453  161.0388 H       1  UNL1        0.1450
@<TRIPOS>BOND
     1    31    32   am
     2    32    33    2
     3    32    23    1
     4    23    19    1
     5    19    20   am
     6    20    21    2
     7    20     1    1
     8     1     2    1
     9     1     3    1
    10     3     4    1
    11     4     5    1
    12     5    10    1
    13    10    11    2
    14    11    12    1
    15    12    13    2
    16    13    14    1
    17    14    15    2
    18    15    16    1
    19    16    17    2
    20    17    18    1
    21     5     6    1
    22     6     7    1
    23    23    24    1
    24    24    25   ar
    25    25    26   ar
    26    26    27   ar
    27    27    28    1
    28    27    29   ar
    29    29    30   ar
    30     7     1    1
    31    30    24   ar
    32    18    10    1
    33    18    14    1
    34    31    34    1
    35    31    35    1
    36    19    22    1
    37     2     8    1
    38     2     9    1
@<TRIPOS>MOLECULE
*****
 35 38 0 0 0
SMALL
GASTEIGER

@<TRIPOS>ATOM
      1 C         141.7294  144.4450  162.7657 C.3     1  UNL1        0.1166
      2 N         141.8179  145.4341  163.8898 N.3     1  UNL1       -0.3162
      3 C         141.9849  143.2132  161.9485 C.3     1  UNL1        0.0739
      4 C         141.2809  143.0235  160.6377 C.3     1  UNL1        0.2039
      5 N         140.3213  144.0654  160.1440 N.pl3   1  UNL1       -0.1931
      6 C         140.0659  145.2971  160.9610 C.3     1  UNL1        0.2039
      7 C         140.7699  145.4869  162.2719 C.3     1  UNL1        0.0739
      8 H         142.4725  145.0918  164.5931 H       1  UNL1        0.1192
      9 H         140.8968  145.5525  164.3117 H       1  UNL1        0.1192
     10 C         139.6173  143.8756  158.8331 C.2     1  UNL1        0.3205
     11 N         138.4898  142.8925  158.7228 N.2     1  UNL1        0.0097
     12 C         137.7858  142.7027  157.4120 C.2     1  UNL1        0.4717
     13 N         138.2092  143.4960  156.2114 N.2     1  UNL1        0.0158
     14 C         139.3367  144.4791  156.3217 C.2     1  UNL1        0.3714
     15 N         139.9708  145.3959  155.3180 N.2     1  UNL1       -0.0339
     16 C         141.0667  146.1523  156.0085 C.2     1  UNL1        0.2323
     17 C         141.1100  145.7030  157.4390 C.2     1  UNL1        0.0486
     18 C         140.0408  144.6690  157.6326 C.3     1  UNL1        0.2428
     19 N         142.6051  142.2692  163.8833 N.am    1  UNL1       -0.2940
     20 C         142.7196  143.7465  163.6498 C.2     1  UNL1        0.2356
     21 O         143.8243  144.5253  164.3003 O.2     1  UNL1       -0.2737
     22 H         141.8800  141.7581  163.4563 H       1  UNL1        0.1502
     23 C         143.5953  141.5707  164.7674 C.3     1  UNL1        0.1713
     24 C         143.2696  141.3256  166.2110 C.ar    1  UNL1        0.0043
     25 C         143.3738  142.4451  167.2039 C.ar    1  UNL1       -0.0013
     26 C         143.0481  142.1999  168.6474 C.ar    1  UNL1        0.0111
     27 C         142.6182  140.8354  169.0981 C.ar    1  UNL1        0.0577
     28 CL        142.2925  140.5902  170.5415 Cl      1  UNL1       -0.0822
     29 C         142.5139  139.7159  168.1052 C.ar    1  UNL1        0.0111
     30 C         142.8396  139.9610  166.6616 C.ar    1  UNL1       -0.0013
     31 N         145.8825  142.1236  163.6661 N.am    1  UNL1       -0.3272
     32 C         144.9111  141.1172  164.2079 C.2     1  UNL1        0.2416
     33 O         145.2554  139.6574  164.1903 O.2     1  UNL1       -0.2732
     34 H         146.7461  141.8260  163.2989 H       1  UNL1        0.1450
     35 H         145.6565  143.0818  163.6777 H       1  UNL1        0.1450
@<TRIPOS>BOND
     1    31    32   am
     2    32    33    2
     3    32    23    1
     4    23    19    1
     5    19    20   am
     6    20    21    2
     7    20     1    1
     8     1     2    1
     9     1     3    1
    10     3     4    1
    11     4     5    1
    12     5    10    1
    13    10    11    2
    14    11    12    1
    15    12    13    2
    16    13    14    1
    17    14    15    2
    18    15    16    1
    19    16    17    2
    20    17    18    1
    21     5     6    1
    22     6     7    1
    23    23    24    1
    24    24    25   ar
    25    25    26   ar
    26    26    27   ar
    27    27    28    1
    28    27    29   ar
    29    29    30   ar
    30     7     1    1
    31    30    24   ar
    32    18    10    1
    33    18    14    1
    34    31    34    1
    35    31    35    1
    36    19    22    1
    37     2     8    1
    38     2     9    1
@<TRIPOS>MOLECULE
*****
 35 38 0 0 0
SMALL
GASTEIGER

@<TRIPOS>ATOM
      1 C         143.3737  140.3897  164.2478 C.3     1  UNL1        0.1166
      2 N         144.1855  139.3952  163.4721 N.3     1  UNL1       -0.3162
      3 C         142.6691  141.6666  164.5991 C.3     1  UNL1        0.0739
      4 C         141.9376  141.7853  165.9032 C.3     1  UNL1        0.2039
      5 N         141.9105  140.6270  166.8561 N.pl3   1  UNL1       -0.1931
      6 C         142.6150  139.3502  166.5048 C.3     1  UNL1        0.2039
      7 C         143.3466  139.2316  165.2007 C.3     1  UNL1        0.0739
      8 H         144.4789  139.8113  162.5882 H       1  UNL1        0.1192
      9 H         143.6209  138.5662  163.2868 H       1  UNL1        0.1192
     10 C         141.1790  140.7457  168.1602 C.2     1  UNL1        0.3205
     11 N         139.8718  140.0360  168.3542 N.2     1  UNL1        0.0097
     12 C         139.1403  140.1546  169.6582 C.2     1  UNL1        0.4717
     13 N         139.7158  140.9831  170.7684 N.2     1  UNL1        0.0158
     14 C         141.0229  141.6929  170.5744 C.2     1  UNL1        0.3714
     15 N         141.8306  142.5742  171.4805 N.2     1  UNL1       -0.0339
     16 C         143.0613  143.0002  170.7364 C.2     1  UNL1        0.2323
     17 C         143.0143  142.3821  169.3704 C.2     1  UNL1        0.0486
     18 C         141.7545  141.5742  169.2703 C.3     1  UNL1        0.2428
     19 N         142.5659  141.7660  162.1976 N.am    1  UNL1       -0.2940
     20 C         143.6827  141.2025  163.0256 C.2     1  UNL1        0.2356
     21 O         145.1082  141.4519  162.6313 O.2     1  UNL1       -0.2737
     22 H         141.6302  141.6023  162.4564 H       1  UNL1        0.1502
     23 C         142.8748  142.5788  160.9754 C.3     1  UNL1        0.1713
     24 C         143.3754  141.9040  159.7327 C.ar    1  UNL1        0.0043
     25 C         142.7720  140.6041  159.2901 C.ar    1  UNL1       -0.0013
     26 C         143.2727  139.9294  158.0475 C.ar    1  UNL1        0.0111
     27 C         144.3768  140.5546  157.2475 C.ar    1  UNL1        0.0577
     28 CL        144.8775  139.8799  156.0050 Cl      1  UNL1       -0.0822
     29 C         144.9802  141.8545  157.6901 C.ar    1  UNL1        0.0111
     30 C         144.4796  142.5293  158.9327 C.ar    1  UNL1       -0.0013
     31 N         143.1664  144.8689  162.1672 N.am    1  UNL1       -0.3272
     32 C         142.6830  144.0663  160.9957 C.2     1  UNL1        0.2416
     33 O         142.0079  144.7513  159.8446 O.2     1  UNL1       -0.2732
     34 H         143.0406  145.8452  162.1806 H       1  UNL1        0.1450
     35 H         143.6096  144.4193  162.9227 H       1  UNL1        0.1450
@<TRIPOS>BOND
     1    31    32   am
     2    32    33    2
     3    32    23    1
     4    23    19    1
     5    19    20   am
     6    20    21    2
     7    20     1    1
     8     1     2    1
     9     1     3    1
    10     3     4    1
    11     4     5    1
    12     5    10    1
    13    10    11    2
    14    11    12    1
    15    12    13    2
    16    13    14    1
    17    14    15    2
    18    15    16    1
    19    16    17    2
    20    17    18    1
    21     5     6    1
    22     6     7    1
    23    23    24    1
    24    24    25   ar
    25    25    26   ar
    26    26    27   ar
    27    27    28    1
    28    27    29   ar
    29    29    30   ar
    30     7     1    1
    31    30    24   ar
    32    18    10    1
    33    18    14    1
    34    31    34    1
    35    31    35    1
    36    19    22    1
    37     2     8    1
    38     2     9    1
@<TRIPOS>MOLECULE
*****
 35 38 0 0 0
SMALL
GASTEIGER

@<TRIPOS>ATOM
      1 C         139.4693  144.2148  163.2128 C.3     1  UNL1        0.1166
      2 N         139.1856  145.0310  164.4388 N.3     1  UNL1       -0.3162
      3 C         139.6380  143.0184  162.3238 C.3     1  UNL1        0.0739
      4 C         140.0393  143.2000  160.8900 C.3     1  UNL1        0.2039
      5 N         140.2720  144.5781  160.3450 N.pl3   1  UNL1       -0.1931
      6 C         140.1033  145.7745  161.2339 C.3     1  UNL1        0.2039
      7 C         139.7019  145.5928  162.6678 C.3     1  UNL1        0.0739
      8 H         138.9378  144.4113  165.2101 H       1  UNL1        0.1192
      9 H         138.4109  145.6676  164.2517 H       1  UNL1        0.1192
     10 C         140.6733  144.7597  158.9112 C.2     1  UNL1        0.3205
     11 N         141.8154  145.6668  158.5611 N.2     1  UNL1        0.0097
     12 C         142.2167  145.8484  157.1274 C.2     1  UNL1        0.4717
     13 N         141.4759  145.1229  156.0434 N.2     1  UNL1        0.0158
     14 C         140.3338  144.2157  156.3935 C.2     1  UNL1        0.3714
     15 N         139.4239  143.3753  155.5474 N.2     1  UNL1       -0.0339
     16 C         138.4602  142.6743  156.4584 C.2     1  UNL1        0.2323
     17 C         138.7745  143.0815  157.8675 C.2     1  UNL1        0.0486
     18 C         139.9324  144.0341  157.8273 C.3     1  UNL1        0.2428
     19 N         140.2271  142.2389  164.7200 N.am    1  UNL1       -0.2940
     20 C         139.1382  143.1202  164.1835 C.2     1  UNL1        0.2356
     21 O         137.7184  142.9069  164.6177 O.2     1  UNL1       -0.2737
     22 H         141.1589  142.3790  164.4350 H       1  UNL1        0.1502
     23 C         139.8960  141.1443  165.6907 C.3     1  UNL1        0.1713
     24 C         140.1618  141.3345  167.1547 C.ar    1  UNL1        0.0043
     25 C         140.0973  140.1614  168.0872 C.ar    1  UNL1       -0.0013
     26 C         140.3631  140.3516  169.5512 C.ar    1  UNL1        0.0111
     27 C         140.6933  141.7149  170.0826 C.ar    1  UNL1        0.0577
     28 CL        140.9591  141.9051  171.5465 Cl      1  UNL1       -0.0822
     29 C         140.7578  142.8880  169.1500 C.ar    1  UNL1        0.0111
     30 C         140.4920  142.6978  167.6861 C.ar    1  UNL1       -0.0013
     31 N         137.8128  139.7357  165.0377 N.am    1  UNL1       -0.3272
     32 C         139.2992  139.8596  165.1974 C.2     1  UNL1        0.2416
     33 O         140.1888  138.6988  164.8638 O.2     1  UNL1       -0.2732
     34 H         137.4211  138.8925  164.7140 H       1  UNL1        0.1450
     35 H         137.2290  140.4976  165.2567 H       1  UNL1        0.1450
@<TRIPOS>BOND
     1    31    32   am
     2    32    33    2
     3    32    23    1
     4    23    19    1
     5    19    20   am
     6    20    21    2
     7    20     1    1
     8     1     2    1
     9     1     3    1
    10     3     4    1
    11     4     5    1
    12     5    10    1
    13    10    11    2
    14    11    12    1
    15    12    13    2
    16    13    14    1
    17    14    15    2
    18    15    16    1
    19    16    17    2
    20    17    18    1
    21     5     6    1
    22     6     7    1
    23    23    24    1
    24    24    25   ar
    25    25    26   ar
    26    26    27   ar
    27    27    28    1
    28    27    29   ar
    29    29    30   ar
    30     7     1    1
    31    30    24   ar
    32    18    10    1
    33    18    14    1
    34    31    34    1
    35    31    35    1
    36    19    22    1
    37     2     8    1
    38     2     9    1
@<TRIPOS>MOLECULE
*****
 35 38 0 0 0
SMALL
GASTEIGER

@<TRIPOS>ATOM
      1 C         139.7159  144.2672  162.0968 C.3     1  UNL1        0.1166
      2 N         139.2539  145.6346  161.6889 N.3     1  UNL1       -0.3162
      3 C         140.4382  142.9530  162.0567 C.3     1  UNL1        0.0739
      4 C         140.2507  141.9600  163.1650 C.3     1  UNL1        0.2039
      5 N         139.3408  142.2809  164.3137 N.pl3   1  UNL1       -0.1931
      6 C         138.6186  143.5949  164.3539 C.3     1  UNL1        0.2039
      7 C         138.8061  144.5880  163.2454 C.3     1  UNL1        0.0739
      8 H         139.6892  145.8903  160.8026 H       1  UNL1        0.1192
      9 H         139.5187  146.3107  162.4053 H       1  UNL1        0.1192
     10 C         139.1533  141.2878  165.4221 C.2     1  UNL1        0.3205
     11 N         138.2321  140.1190  165.2340 N.2     1  UNL1        0.0097
     12 C         138.0446  139.1260  166.3423 C.2     1  UNL1        0.4717
     13 N         138.7783  139.3015  167.6389 N.2     1  UNL1        0.0158
     14 C         139.6995  140.4703  167.8269 C.2     1  UNL1        0.3714
     15 N         140.5502  140.9015  168.9846 N.2     1  UNL1       -0.0339
     16 C         141.2635  142.1612  168.5917 C.2     1  UNL1        0.2323
     17 C         140.8537  142.5085  167.1912 C.2     1  UNL1        0.0486
     18 C         139.8870  141.4634  166.7185 C.3     1  UNL1        0.2428
     19 N         139.7484  144.2587  159.4990 N.am    1  UNL1       -0.2940
     20 C         140.4653  144.4211  160.8066 C.2     1  UNL1        0.2356
     21 O         141.9314  144.7374  160.8239 O.2     1  UNL1       -0.2737
     22 H         138.7861  144.0511  159.4877 H       1  UNL1        0.1502
     23 C         140.4977  144.4126  158.2087 C.3     1  UNL1        0.1713
     24 C         140.8409  143.2023  157.3917 C.ar    1  UNL1        0.0043
     25 C         140.9681  141.8622  158.0534 C.ar    1  UNL1       -0.0013
     26 C         141.3113  140.6519  157.2364 C.ar    1  UNL1        0.0111
     27 C         141.5271  140.7817  155.7577 C.ar    1  UNL1        0.0577
     28 CL        141.8702  139.5715  154.9407 Cl      1  UNL1       -0.0822
     29 C         141.3999  142.1218  155.0960 C.ar    1  UNL1        0.0111
     30 C         141.0567  143.3322  155.9130 C.ar    1  UNL1       -0.0013
     31 N         142.3379  146.2069  157.8289 N.am    1  UNL1       -0.3272
     32 C         140.9039  145.7768  157.7354 C.2     1  UNL1        0.2416
     33 O         139.8760  146.7108  157.1687 O.2     1  UNL1       -0.2732
     34 H         142.6044  147.1023  157.5182 H       1  UNL1        0.1450
     35 H         143.0124  145.5939  158.2008 H       1  UNL1        0.1450
@<TRIPOS>BOND
     1    31    32   am
     2    32    33    2
     3    32    23    1
     4    23    19    1
     5    19    20   am
     6    20    21    2
     7    20     1    1
     8     1     2    1
     9     1     3    1
    10     3     4    1
    11     4     5    1
    12     5    10    1
    13    10    11    2
    14    11    12    1
    15    12    13    2
    16    13    14    1
    17    14    15    2
    18    15    16    1
    19    16    17    2
    20    17    18    1
    21     5     6    1
    22     6     7    1
    23    23    24    1
    24    24    25   ar
    25    25    26   ar
    26    26    27   ar
    27    27    28    1
    28    27    29   ar
    29    29    30   ar
    30     7     1    1
    31    30    24   ar
    32    18    10    1
    33    18    14    1
    34    31    34    1
    35    31    35    1
    36    19    22    1
    37     2     8    1
    38     2     9    1
@<TRIPOS>MOLECULE
*****
 35 38 0 0 0
SMALL
GASTEIGER

@<TRIPOS>ATOM
      1 C         141.5810  138.8190  163.0023 C.3     1  UNL1        0.1166
      2 N         141.8081  138.0300  164.2575 N.3     1  UNL1       -0.3162
      3 C         140.9947  139.8244  162.0560 C.3     1  UNL1        0.0739
      4 C         141.5217  139.9329  160.6559 C.3     1  UNL1        0.2039
      5 N         142.6351  139.0360  160.2019 N.pl3   1  UNL1       -0.1931
      6 C         143.2215  138.0306  161.1482 C.3     1  UNL1        0.2039
      7 C         142.6944  137.9222  162.5484 C.3     1  UNL1        0.0739
      8 H         141.1605  138.3458  164.9795 H       1  UNL1        0.1192
      9 H         142.7669  138.1678  164.5770 H       1  UNL1        0.1192
     10 C         143.1621  139.1445  158.8017 C.2     1  UNL1        0.3205
     11 N         142.9698  138.0113  157.8380 N.2     1  UNL1        0.0097
     12 C         143.4968  138.1198  156.4379 C.2     1  UNL1        0.4717
     13 N         144.2162  139.3616  156.0014 N.2     1  UNL1        0.0158
     14 C         144.4085  140.4948  156.9651 C.2     1  UNL1        0.3714
     15 N         145.0719  141.8325  156.8218 N.2     1  UNL1       -0.0339
     16 C         144.9550  142.5507  158.1335 C.2     1  UNL1        0.2323
     17 C         144.2192  141.6569  159.0874 C.2     1  UNL1        0.0486
     18 C         143.8815  140.3863  158.3653 C.3     1  UNL1        0.2428
     19 N         140.7137  140.8573  164.3597 N.am    1  UNL1       -0.2940
     20 C         140.5465  139.4419  163.8921 C.2     1  UNL1        0.2356
     21 O         139.3450  138.6494  164.3142 O.2     1  UNL1       -0.2737
     22 H         141.5023  141.3774  164.0826 H       1  UNL1        0.1502
     23 C         139.6791  141.4803  165.2496 C.3     1  UNL1        0.1713
     24 C         139.9147  141.5646  166.7286 C.ar    1  UNL1        0.0043
     25 C         139.6676  140.3668  167.5969 C.ar    1  UNL1       -0.0013
     26 C         139.9031  140.4512  169.0759 C.ar    1  UNL1        0.0111
     27 C         140.3857  141.7334  169.6866 C.ar    1  UNL1        0.0577
     28 CL        140.6212  141.8178  171.1655 Cl      1  UNL1       -0.0822
     29 C         140.6327  142.9313  168.8182 C.ar    1  UNL1        0.0111
     30 C         140.3972  142.8469  167.3392 C.ar    1  UNL1       -0.0013
     31 N         137.3673  141.0763  164.1351 N.am    1  UNL1       -0.3272
     32 C         138.4092  142.0189  164.6604 C.2     1  UNL1        0.2416
     33 O         138.1812  143.5001  164.5965 O.2     1  UNL1       -0.2732
     34 H         136.5338  141.4297  163.7484 H       1  UNL1        0.1450
     35 H         137.5170  140.1041  164.1770 H       1  UNL1        0.1450
@<TRIPOS>BOND
     1    31    32   am
     2    32    33    2
     3    32    23    1
     4    23    19    1
     5    19    20   am
     6    20    21    2
     7    20     1    1
     8     1     2    1
     9     1     3    1
    10     3     4    1
    11     4     5    1
    12     5    10    1
    13    10    11    2
    14    11    12    1
    15    12    13    2
    16    13    14    1
    17    14    15    2
    18    15    16    1
    19    16    17    2
    20    17    18    1
    21     5     6    1
    22     6     7    1
    23    23    24    1
    24    24    25   ar
    25    25    26   ar
    26    26    27   ar
    27    27    28    1
    28    27    29   ar
    29    29    30   ar
    30     7     1    1
    31    30    24   ar
    32    18    10    1
    33    18    14    1
    34    31    34    1
    35    31    35    1
    36    19    22    1
    37     2     8    1
    38     2     9    1
