@<TRIPOS>MOLECULE
*****
 41 44 0 0 0
SMALL
GASTEIGER

@<TRIPOS>ATOM
      1 C         142.2249  139.3685  160.8545 C.3     1  UNL1        0.0311
      2 C         141.7757  140.5684  161.6346 C.ar    1  UNL1       -0.0203
      3 C         141.1071  140.3904  162.9655 C.ar    1  UNL1        0.0145
      4 C         140.6578  141.5902  163.7456 C.ar    1  UNL1        0.0794
      5 C         140.8771  142.9681  163.1948 C.ar    1  UNL1        0.0382
      6 C         140.3311  143.9550  164.1837 C.ar    1  UNL1        0.1216
      7 N         139.7743  143.1870  165.3457 N.ar    1  UNL1       -0.1675
      8 N         139.9762  141.7255  165.0749 N.ar    1  UNL1       -0.2487
      9 C         141.5457  143.1461  161.8639 C.ar    1  UNL1        0.0028
     10 C         141.9950  141.9462  161.0838 C.ar    1  UNL1       -0.0030
     11 C         142.6636  142.1243  159.7529 C.ar    1  UNL1        0.0103
     12 C         141.8524  142.0669  158.4924 C.ar    1  UNL1        0.0008
     13 C         142.5210  142.2449  157.1615 C.ar    1  UNL1        0.0039
     14 C         144.0007  142.4803  157.0911 C.ar    1  UNL1        0.0723
     15 C         144.8119  142.5377  158.3515 C.ar    1  UNL1        0.0152
     16 C         144.1433  142.3597  159.6824 C.ar    1  UNL1        0.0576
     17 CL        144.9544  142.4170  160.9430 Cl      1  UNL1       -0.0823
     18 C         144.6694  142.6584  155.7602 C.3     1  UNL1        0.4186
     19 F         145.3379  142.8364  154.4293 F       1  UNL1       -0.1659
     20 F         143.3284  142.6723  155.0884 F       1  UNL1       -0.1659
     21 F         146.0104  142.6444  156.4320 F       1  UNL1       -0.1659
     22 C         139.5682  140.5974  165.9754 C.3     1  UNL1        0.1273
     23 C         140.4876  140.1406  167.0690 C.ar    1  UNL1       -0.0001
     24 C         140.0570  140.2422  168.5023 C.ar    1  UNL1       -0.0023
     25 C         140.9764  139.7854  169.5959 C.ar    1  UNL1        0.0042
     26 C         142.3266  139.2269  169.2562 C.ar    1  UNL1        0.0533
     27 C         142.7572  139.1253  167.8230 C.ar    1  UNL1        0.0042
     28 C         141.8378  139.5821  166.7294 C.ar    1  UNL1       -0.0023
     29 C         143.2460  138.7701  170.3498 C.2     1  UNL1        0.2459
     30 O         143.8710  139.7740  171.2724 O.2     1  UNL1       -0.2701
     31 N         143.5404  137.3092  170.5207 N.am    1  UNL1       -0.3005
     32 H         143.1302  136.6502  169.9151 H       1  UNL1        0.1498
     33 C         144.4599  136.8524  171.6143 C.3     1  UNL1        0.0956
     34 C         145.1606  135.5309  171.5019 C.3     1  UNL1        0.0629
     35 C         146.0067  135.0317  172.6354 C.2     1  UNL1        0.0520
     36 O         145.8418  133.6259  173.1319 O.co2   1  UNL1       -0.5491
     37 O         147.0176  135.9384  173.2726 O.co2   1  UNL1       -0.5491
     38 C         138.2407  139.9261  165.7824 C.3     1  UNL1        0.0289
     39 C         138.0999  138.4551  166.0391 C.3     1  UNL1        0.0023
     40 C         138.7764  137.4677  165.1349 C.3     1  UNL1        0.0001
     41 C         137.2825  137.9711  167.2001 C.3     1  UNL1        0.0001
@<TRIPOS>UNITY_ATOM_ATTR
36 1
charge -1
@<TRIPOS>BOND
     1     1     2    1
     2     2     3   ar
     3     3     4   ar
     4     4     5   ar
     5     5     6   ar
     6     6     7   ar
     7     7     8   ar
     8     8    22    1
     9    22    38    1
    10    38    39    1
    11    39    40    1
    12    39    41    1
    13    22    23    1
    14    23    24   ar
    15    24    25   ar
    16    25    26   ar
    17    26    29    1
    18    29    30    2
    19    29    31   am
    20    31    33    1
    21    33    34    1
    22    34    35    1
    23    35    36   ar
    24    35    37   ar
    25    26    27   ar
    26    27    28   ar
    27     5     9   ar
    28     9    10   ar
    29    10    11    1
    30    11    12   ar
    31    12    13   ar
    32    13    14   ar
    33    14    18    1
    34    18    19    1
    35    18    20    1
    36    18    21    1
    37    14    15   ar
    38    15    16   ar
    39    16    17    1
    40    10     2   ar
    41    16    11   ar
    42     8     4   ar
    43    28    23   ar
    44    31    32    1
@<TRIPOS>MOLECULE
*****
 41 44 0 0 0
SMALL
GASTEIGER

@<TRIPOS>ATOM
      1 C         142.1901  140.6750  163.6307 C.3     1  UNL1        0.0311
      2 C         141.6171  142.0302  163.3391 C.ar    1  UNL1       -0.0203
      3 C         141.4293  142.4753  161.9190 C.ar    1  UNL1        0.0145
      4 C         140.8563  143.8305  161.6274 C.ar    1  UNL1        0.0794
      5 C         140.4711  144.7407  162.7558 C.ar    1  UNL1        0.0382
      6 C         139.9343  146.0105  162.1647 C.ar    1  UNL1        0.1216
      7 N         139.9878  145.8851  160.6709 N.ar    1  UNL1       -0.1675
      8 N         140.5576  144.5379  160.3388 N.ar    1  UNL1       -0.2487
      9 C         140.6589  144.2956  164.1759 C.ar    1  UNL1        0.0028
     10 C         141.2319  142.9403  164.4675 C.ar    1  UNL1       -0.0030
     11 C         141.4198  142.4952  165.8876 C.ar    1  UNL1        0.0103
     12 C         140.2483  141.9893  166.6762 C.ar    1  UNL1        0.0008
     13 C         140.4361  141.5442  168.0963 C.ar    1  UNL1        0.0039
     14 C         141.7954  141.6049  168.7278 C.ar    1  UNL1        0.0723
     15 C         142.9668  142.1107  167.9392 C.ar    1  UNL1        0.0152
     16 C         142.7790  142.5558  166.5191 C.ar    1  UNL1        0.0576
     17 CL        143.9504  143.0617  165.7304 Cl      1  UNL1       -0.0823
     18 C         141.9832  141.1598  170.1478 C.3     1  UNL1        0.4186
     19 F         142.1712  140.7148  171.5679 F       1  UNL1       -0.1659
     20 F         142.4654  142.5321  170.5141 F       1  UNL1       -0.1659
     21 F         141.5011  139.7875  169.7815 F       1  UNL1       -0.1659
     22 C         140.7881  143.9936  158.9602 C.3     1  UNL1        0.1273
     23 C         139.6862  143.2684  158.2462 C.ar    1  UNL1       -0.0001
     24 C         139.1732  143.7871  156.9355 C.ar    1  UNL1       -0.0023
     25 C         138.0712  143.0620  156.2215 C.ar    1  UNL1        0.0042
     26 C         137.4822  141.8181  156.8182 C.ar    1  UNL1        0.0533
     27 C         137.9951  141.2995  158.1288 C.ar    1  UNL1        0.0042
     28 C         139.0971  142.0246  158.8429 C.ar    1  UNL1       -0.0023
     29 C         136.3802  141.0930  156.1042 C.2     1  UNL1        0.2459
     30 O         136.5723  139.6672  155.6801 O.2     1  UNL1       -0.2701
     31 N         135.0860  141.7938  155.8142 N.am    1  UNL1       -0.3005
     32 H         134.9599  142.7297  156.0925 H       1  UNL1        0.1498
     33 C         133.9841  141.0687  155.1002 C.3     1  UNL1        0.0956
     34 C         132.7873  140.5840  155.8638 C.3     1  UNL1        0.0629
     35 C         132.9121  139.4077  156.7860 C.2     1  UNL1        0.0520
     36 O         133.9573  139.4057  157.8619 O.co2   1  UNL1       -0.5491
     37 O         131.9917  138.2332  156.6323 O.co2   1  UNL1       -0.5491
     38 C         142.1207  144.1743  158.2956 C.3     1  UNL1        0.0289
     39 C         143.0423  143.0023  158.1322 C.3     1  UNL1        0.0023
     40 C         143.0005  142.1849  156.8751 C.3     1  UNL1        0.0001
     41 C         144.0060  142.6476  159.2257 C.3     1  UNL1        0.0001
@<TRIPOS>UNITY_ATOM_ATTR
36 1
charge -1
@<TRIPOS>BOND
     1     1     2    1
     2     2     3   ar
     3     3     4   ar
     4     4     5   ar
     5     5     6   ar
     6     6     7   ar
     7     7     8   ar
     8     8    22    1
     9    22    38    1
    10    38    39    1
    11    39    40    1
    12    39    41    1
    13    22    23    1
    14    23    24   ar
    15    24    25   ar
    16    25    26   ar
    17    26    29    1
    18    29    30    2
    19    29    31   am
    20    31    33    1
    21    33    34    1
    22    34    35    1
    23    35    36   ar
    24    35    37   ar
    25    26    27   ar
    26    27    28   ar
    27     5     9   ar
    28     9    10   ar
    29    10    11    1
    30    11    12   ar
    31    12    13   ar
    32    13    14   ar
    33    14    18    1
    34    18    19    1
    35    18    20    1
    36    18    21    1
    37    14    15   ar
    38    15    16   ar
    39    16    17    1
    40    10     2   ar
    41    16    11   ar
    42     8     4   ar
    43    28    23   ar
    44    31    32    1
@<TRIPOS>MOLECULE
*****
 41 44 0 0 0
SMALL
GASTEIGER

@<TRIPOS>ATOM
      1 C         142.5731  142.9842  158.6522 C.3     1  UNL1        0.0311
      2 C         141.3160  142.3987  159.2241 C.ar    1  UNL1       -0.0203
      3 C         141.3960  141.2968  160.2386 C.ar    1  UNL1        0.0145
      4 C         140.1390  140.7113  160.8106 C.ar    1  UNL1        0.0794
      5 C         138.8020  141.2277  160.3679 C.ar    1  UNL1        0.0382
      6 C         137.7425  140.4608  161.1022 C.ar    1  UNL1        0.1216
      7 N         138.4247  139.4704  161.9987 N.ar    1  UNL1       -0.1675
      8 N         139.9057  139.6252  161.8185 N.ar    1  UNL1       -0.2487
      9 C         138.7221  142.3296  159.3533 C.ar    1  UNL1        0.0028
     10 C         139.9792  142.9151  158.7814 C.ar    1  UNL1       -0.0030
     11 C         139.8993  144.0171  157.7667 C.ar    1  UNL1        0.0103
     12 C         139.6772  143.6897  156.3198 C.ar    1  UNL1        0.0008
     13 C         139.5973  144.7916  155.3052 C.ar    1  UNL1        0.0039
     14 C         139.7395  146.2209  155.7375 C.ar    1  UNL1        0.0723
     15 C         139.9616  146.5483  157.1844 C.ar    1  UNL1        0.0152
     16 C         140.0415  145.4464  158.1990 C.ar    1  UNL1        0.0576
     17 CL        140.2636  145.7737  159.6460 Cl      1  UNL1       -0.0823
     18 C         139.6596  147.3228  154.7230 C.3     1  UNL1        0.4186
     19 F         139.5798  148.4247  153.7084 F       1  UNL1       -0.1659
     20 F         140.6349  146.5900  153.8503 F       1  UNL1       -0.1659
     21 F         138.6842  148.0557  155.5957 F       1  UNL1       -0.1659
     22 C         140.9672  138.8330  162.5226 C.3     1  UNL1        0.1273
     23 C         141.4163  139.2354  163.8960 C.ar    1  UNL1       -0.0001
     24 C         140.9337  140.5229  164.4957 C.ar    1  UNL1       -0.0023
     25 C         141.3828  140.9253  165.8692 C.ar    1  UNL1        0.0042
     26 C         142.3145  140.0402  166.6430 C.ar    1  UNL1        0.0533
     27 C         142.7971  138.7529  166.0433 C.ar    1  UNL1        0.0042
     28 C         142.3480  138.3504  164.6698 C.ar    1  UNL1       -0.0023
     29 C         142.7636  140.4426  168.0164 C.2     1  UNL1        0.2459
     30 O         142.9028  139.4078  169.0932 O.2     1  UNL1       -0.2701
     31 N         143.0736  141.8800  168.3131 N.am    1  UNL1       -0.3005
     32 H         142.9822  142.5592  167.6063 H       1  UNL1        0.1498
     33 C         143.5227  142.2824  169.6865 C.3     1  UNL1        0.0956
     34 C         142.5676  142.9704  170.6163 C.3     1  UNL1        0.0629
     35 C         141.1332  142.5357  170.6746 C.2     1  UNL1        0.0520
     36 O         140.5266  142.1251  171.9835 O.co2   1  UNL1       -0.5491
     37 O         140.3054  142.5116  169.4239 O.co2   1  UNL1       -0.5491
     38 C         141.5795  137.6384  161.8532 C.3     1  UNL1        0.0289
     39 C         142.7347  137.8157  160.9131 C.3     1  UNL1        0.0023
     40 C         144.1331  137.8961  161.4498 C.3     1  UNL1        0.0001
     41 C         142.4917  137.9125  159.4360 C.3     1  UNL1        0.0001
@<TRIPOS>UNITY_ATOM_ATTR
36 1
charge -1
@<TRIPOS>BOND
     1     1     2    1
     2     2     3   ar
     3     3     4   ar
     4     4     5   ar
     5     5     6   ar
     6     6     7   ar
     7     7     8   ar
     8     8    22    1
     9    22    38    1
    10    38    39    1
    11    39    40    1
    12    39    41    1
    13    22    23    1
    14    23    24   ar
    15    24    25   ar
    16    25    26   ar
    17    26    29    1
    18    29    30    2
    19    29    31   am
    20    31    33    1
    21    33    34    1
    22    34    35    1
    23    35    36   ar
    24    35    37   ar
    25    26    27   ar
    26    27    28   ar
    27     5     9   ar
    28     9    10   ar
    29    10    11    1
    30    11    12   ar
    31    12    13   ar
    32    13    14   ar
    33    14    18    1
    34    18    19    1
    35    18    20    1
    36    18    21    1
    37    14    15   ar
    38    15    16   ar
    39    16    17    1
    40    10     2   ar
    41    16    11   ar
    42     8     4   ar
    43    28    23   ar
    44    31    32    1
@<TRIPOS>MOLECULE
*****
 41 44 0 0 0
SMALL
GASTEIGER

@<TRIPOS>ATOM
      1 C         142.5022  142.9890  159.5440 C.3     1  UNL1        0.0311
      2 C         141.2146  142.2435  159.7351 C.ar    1  UNL1       -0.0203
      3 C         141.1322  141.1349  160.7422 C.ar    1  UNL1        0.0145
      4 C         139.8447  140.3894  160.9333 C.ar    1  UNL1        0.0794
      5 C         138.6395  140.7525  160.1172 C.ar    1  UNL1        0.0382
      6 C         137.5149  139.8467  160.5229 C.ar    1  UNL1        0.1216
      7 N         138.0249  138.9238  161.5897 N.ar    1  UNL1       -0.1675
      8 N         139.4648  139.2592  161.8433 N.ar    1  UNL1       -0.2487
      9 C         138.7220  141.8611  159.1101 C.ar    1  UNL1        0.0028
     10 C         140.0096  142.6065  158.9191 C.ar    1  UNL1       -0.0030
     11 C         140.0920  143.7152  157.9119 C.ar    1  UNL1        0.0103
     12 C         139.9974  145.1437  158.3595 C.ar    1  UNL1        0.0008
     13 C         140.0798  146.2523  157.3524 C.ar    1  UNL1        0.0039
     14 C         140.2569  145.9323  155.8977 C.ar    1  UNL1        0.0723
     15 C         140.3515  144.5038  155.4501 C.ar    1  UNL1        0.0152
     16 C         140.2691  143.3952  156.4572 C.ar    1  UNL1        0.0576
     17 CL        140.3637  141.9666  156.0096 Cl      1  UNL1       -0.0823
     18 C         140.3393  147.0408  154.8906 C.3     1  UNL1        0.4186
     19 F         140.4217  148.1493  153.8834 F       1  UNL1       -0.1659
     20 F         139.2116  147.7505  155.5793 F       1  UNL1       -0.1659
     21 F         141.4671  146.3312  154.2017 F       1  UNL1       -0.1659
     22 C         140.3665  138.5831  162.8332 C.3     1  UNL1        0.1273
     23 C         140.2770  138.9319  164.2893 C.ar    1  UNL1       -0.0001
     24 C         138.9366  139.0371  164.9544 C.ar    1  UNL1       -0.0023
     25 C         138.8472  139.3859  166.4105 C.ar    1  UNL1        0.0042
     26 C         140.0982  139.6294  167.2017 C.ar    1  UNL1        0.0533
     27 C         141.4385  139.5242  166.5366 C.ar    1  UNL1        0.0042
     28 C         141.5280  139.1754  165.0805 C.ar    1  UNL1       -0.0023
     29 C         140.0088  139.9782  168.6578 C.2     1  UNL1        0.2459
     30 O         138.6943  139.8791  169.3734 O.2     1  UNL1       -0.2701
     31 N         141.2339  140.4262  169.3984 N.am    1  UNL1       -0.3005
     32 H         142.0967  140.4912  168.9287 H       1  UNL1        0.1498
     33 C         141.1445  140.7749  170.8545 C.3     1  UNL1        0.0956
     34 C         140.9995  142.2075  171.2751 C.3     1  UNL1        0.0629
     35 C         139.9805  143.0848  170.6103 C.2     1  UNL1        0.0520
     36 O         138.8426  143.6498  171.4079 O.co2   1  UNL1       -0.5491
     37 O         140.0994  143.3973  169.1480 O.co2   1  UNL1       -0.5491
     38 C         141.3575  137.5582  162.3670 C.3     1  UNL1        0.0289
     39 C         142.5937  137.9891  161.6348 C.3     1  UNL1        0.0023
     40 C         142.7373  137.6991  160.1701 C.3     1  UNL1        0.0001
     41 C         143.6864  138.7100  162.3673 C.3     1  UNL1        0.0001
@<TRIPOS>UNITY_ATOM_ATTR
36 1
charge -1
@<TRIPOS>BOND
     1     1     2    1
     2     2     3   ar
     3     3     4   ar
     4     4     5   ar
     5     5     6   ar
     6     6     7   ar
     7     7     8   ar
     8     8    22    1
     9    22    38    1
    10    38    39    1
    11    39    40    1
    12    39    41    1
    13    22    23    1
    14    23    24   ar
    15    24    25   ar
    16    25    26   ar
    17    26    29    1
    18    29    30    2
    19    29    31   am
    20    31    33    1
    21    33    34    1
    22    34    35    1
    23    35    36   ar
    24    35    37   ar
    25    26    27   ar
    26    27    28   ar
    27     5     9   ar
    28     9    10   ar
    29    10    11    1
    30    11    12   ar
    31    12    13   ar
    32    13    14   ar
    33    14    18    1
    34    18    19    1
    35    18    20    1
    36    18    21    1
    37    14    15   ar
    38    15    16   ar
    39    16    17    1
    40    10     2   ar
    41    16    11   ar
    42     8     4   ar
    43    28    23   ar
    44    31    32    1
@<TRIPOS>MOLECULE
*****
 41 44 0 0 0
SMALL
GASTEIGER

@<TRIPOS>ATOM
      1 C         143.3531  144.6738  164.1481 C.3     1  UNL1        0.0311
      2 C         142.9326  143.4908  163.3272 C.ar    1  UNL1       -0.0203
      3 C         143.2205  143.4588  161.8554 C.ar    1  UNL1        0.0145
      4 C         142.8000  142.2759  161.0345 C.ar    1  UNL1        0.0794
      5 C         142.0916  141.1249  161.6854 C.ar    1  UNL1        0.0382
      6 C         141.7999  140.1022  160.6277 C.ar    1  UNL1        0.1216
      7 N         142.3280  140.6210  159.3231 N.ar    1  UNL1       -0.1675
      8 N         142.9461  141.9644  159.5745 N.ar    1  UNL1       -0.2487
      9 C         141.8037  141.1570  163.1572 C.ar    1  UNL1        0.0028
     10 C         142.2242  142.3400  163.9780 C.ar    1  UNL1       -0.0030
     11 C         141.9363  142.3720  165.4499 C.ar    1  UNL1        0.0103
     12 C         142.9662  141.8862  166.4263 C.ar    1  UNL1        0.0008
     13 C         142.6783  141.9182  167.8980 C.ar    1  UNL1        0.0039
     14 C         141.3606  142.4361  168.3934 C.ar    1  UNL1        0.0723
     15 C         140.3307  142.9219  167.4170 C.ar    1  UNL1        0.0152
     16 C         140.6186  142.8899  165.9452 C.ar    1  UNL1        0.0576
     17 CL        139.5888  143.3757  164.9687 Cl      1  UNL1       -0.0823
     18 C         141.0726  142.4681  169.8651 C.3     1  UNL1        0.4186
     19 F         140.7846  142.5001  171.3368 F       1  UNL1       -0.1659
     20 F         140.1659  141.2829  169.7135 F       1  UNL1       -0.1659
     21 F         141.9793  143.6533  170.0168 F       1  UNL1       -0.1659
     22 C         143.5962  142.8421  158.5465 C.3     1  UNL1        0.1273
     23 C         142.7693  143.8171  157.7619 C.ar    1  UNL1       -0.0001
     24 C         142.8296  143.8161  156.2631 C.ar    1  UNL1       -0.0023
     25 C         142.0028  144.7910  155.4784 C.ar    1  UNL1        0.0042
     26 C         141.1154  145.7672  156.1926 C.ar    1  UNL1        0.0533
     27 C         141.0551  145.7682  157.6913 C.ar    1  UNL1        0.0042
     28 C         141.8820  144.7933  158.4760 C.ar    1  UNL1       -0.0023
     29 C         140.2886  146.7422  155.4080 C.2     1  UNL1        0.2459
     30 O         140.0582  146.5212  153.9424 O.2     1  UNL1       -0.2701
     31 N         139.6920  147.9381  156.0891 N.am    1  UNL1       -0.3005
     32 H         139.8432  148.0832  157.0510 H       1  UNL1        0.1498
     33 C         138.8651  148.9131  155.3045 C.3     1  UNL1        0.0956
     34 C         138.4555  150.2170  155.9226 C.3     1  UNL1        0.0629
     35 C         139.2971  151.4416  155.7173 C.2     1  UNL1        0.0520
     36 O         138.7570  152.7926  156.0821 O.co2   1  UNL1       -0.5491
     37 O         140.6787  151.3151  155.1471 O.co2   1  UNL1       -0.5491
     38 C         145.0731  142.7449  158.3030 C.3     1  UNL1        0.0289
     39 C         145.5933  141.9066  157.1732 C.3     1  UNL1        0.0023
     40 C         144.8914  140.6353  156.7975 C.3     1  UNL1        0.0001
     41 C         146.8155  142.3395  156.4189 C.3     1  UNL1        0.0001
@<TRIPOS>UNITY_ATOM_ATTR
36 1
charge -1
@<TRIPOS>BOND
     1     1     2    1
     2     2     3   ar
     3     3     4   ar
     4     4     5   ar
     5     5     6   ar
     6     6     7   ar
     7     7     8   ar
     8     8    22    1
     9    22    38    1
    10    38    39    1
    11    39    40    1
    12    39    41    1
    13    22    23    1
    14    23    24   ar
    15    24    25   ar
    16    25    26   ar
    17    26    29    1
    18    29    30    2
    19    29    31   am
    20    31    33    1
    21    33    34    1
    22    34    35    1
    23    35    36   ar
    24    35    37   ar
    25    26    27   ar
    26    27    28   ar
    27     5     9   ar
    28     9    10   ar
    29    10    11    1
    30    11    12   ar
    31    12    13   ar
    32    13    14   ar
    33    14    18    1
    34    18    19    1
    35    18    20    1
    36    18    21    1
    37    14    15   ar
    38    15    16   ar
    39    16    17    1
    40    10     2   ar
    41    16    11   ar
    42     8     4   ar
    43    28    23   ar
    44    31    32    1
@<TRIPOS>MOLECULE
*****
 41 44 0 0 0
SMALL
GASTEIGER

@<TRIPOS>ATOM
      1 C         141.8996  140.6490  163.7851 C.3     1  UNL1        0.0311
      2 C         141.1958  141.9395  163.4857 C.ar    1  UNL1       -0.0203
      3 C         141.3151  142.5606  162.1256 C.ar    1  UNL1        0.0145
      4 C         140.6114  143.8510  161.8261 C.ar    1  UNL1        0.0794
      5 C         139.7885  144.5202  162.8868 C.ar    1  UNL1        0.0382
      6 C         139.2132  145.7767  162.3033 C.ar    1  UNL1        0.1216
      7 N         139.6806  145.8840  160.8821 N.ar    1  UNL1       -0.1675
      8 N         140.5447  144.6939  160.5871 N.ar    1  UNL1       -0.2487
      9 C         139.6692  143.8991  164.2469 C.ar    1  UNL1        0.0028
     10 C         140.3730  142.6086  164.5463 C.ar    1  UNL1       -0.0030
     11 C         140.2537  141.9874  165.9065 C.ar    1  UNL1        0.0103
     12 C         141.0672  142.5206  167.0484 C.ar    1  UNL1        0.0008
     13 C         140.9480  141.8994  168.4085 C.ar    1  UNL1        0.0039
     14 C         140.0153  140.7450  168.6267 C.ar    1  UNL1        0.0723
     15 C         139.2019  140.2118  167.4847 C.ar    1  UNL1        0.0152
     16 C         139.3211  140.8330  166.1246 C.ar    1  UNL1        0.0576
     17 CL        138.5077  140.2999  164.9826 Cl      1  UNL1       -0.0823
     18 C         139.8961  140.1238  169.9868 C.3     1  UNL1        0.4186
     19 F         139.7767  139.5026  171.3468 F       1  UNL1       -0.1659
     20 F         138.6382  140.9030  170.2324 F       1  UNL1       -0.1659
     21 F         141.1540  139.3445  169.7412 F       1  UNL1       -0.1659
     22 C         141.2231  144.3985  159.2823 C.3     1  UNL1        0.1273
     23 C         141.3489  142.9817  158.8063 C.ar    1  UNL1       -0.0001
     24 C         142.7053  142.3607  158.6498 C.ar    1  UNL1       -0.0023
     25 C         142.8312  140.9438  158.1738 C.ar    1  UNL1        0.0042
     26 C         141.6005  140.1478  157.8543 C.ar    1  UNL1        0.0533
     27 C         140.2441  140.7688  158.0107 C.ar    1  UNL1        0.0042
     28 C         140.1182  142.1857  158.4867 C.ar    1  UNL1       -0.0023
     29 C         141.7263  138.7309  157.3783 C.2     1  UNL1        0.2459
     30 O         140.7498  138.1861  156.3786 O.2     1  UNL1       -0.2701
     31 N         142.8287  137.8589  157.9020 N.am    1  UNL1       -0.3005
     32 H         143.4697  138.2165  158.5581 H       1  UNL1        0.1498
     33 C         142.9545  136.4420  157.4260 C.3     1  UNL1        0.0956
     34 C         143.6291  136.1469  156.1191 C.3     1  UNL1        0.0629
     35 C         143.9966  137.2695  155.1945 C.2     1  UNL1        0.0520
     36 O         145.2120  138.1032  155.4730 O.co2   1  UNL1       -0.5491
     37 O         143.1486  137.5583  153.9914 O.co2   1  UNL1       -0.5491
     38 C         141.7756  145.5200  158.4535 C.3     1  UNL1        0.0289
     39 C         141.3151  145.7038  157.0379 C.3     1  UNL1        0.0023
     40 C         140.0064  146.3809  156.7568 C.3     1  UNL1        0.0001
     41 C         142.1631  145.2105  155.9031 C.3     1  UNL1        0.0001
@<TRIPOS>UNITY_ATOM_ATTR
36 1
charge -1
@<TRIPOS>BOND
     1     1     2    1
     2     2     3   ar
     3     3     4   ar
     4     4     5   ar
     5     5     6   ar
     6     6     7   ar
     7     7     8   ar
     8     8    22    1
     9    22    38    1
    10    38    39    1
    11    39    40    1
    12    39    41    1
    13    22    23    1
    14    23    24   ar
    15    24    25   ar
    16    25    26   ar
    17    26    29    1
    18    29    30    2
    19    29    31   am
    20    31    33    1
    21    33    34    1
    22    34    35    1
    23    35    36   ar
    24    35    37   ar
    25    26    27   ar
    26    27    28   ar
    27     5     9   ar
    28     9    10   ar
    29    10    11    1
    30    11    12   ar
    31    12    13   ar
    32    13    14   ar
    33    14    18    1
    34    18    19    1
    35    18    20    1
    36    18    21    1
    37    14    15   ar
    38    15    16   ar
    39    16    17    1
    40    10     2   ar
    41    16    11   ar
    42     8     4   ar
    43    28    23   ar
    44    31    32    1
@<TRIPOS>MOLECULE
*****
 41 44 0 0 0
SMALL
GASTEIGER

@<TRIPOS>ATOM
      1 C         141.9420  142.7485  158.8226 C.3     1  UNL1        0.0311
      2 C         142.5078  141.8910  159.9156 C.ar    1  UNL1       -0.0203
      3 C         142.0803  142.1086  161.3368 C.ar    1  UNL1        0.0145
      4 C         142.6459  141.2511  162.4299 C.ar    1  UNL1        0.0794
      5 C         143.6391  140.1760  162.1017 C.ar    1  UNL1        0.0382
      6 C         144.0219  139.4924  163.3808 C.ar    1  UNL1        0.1216
      7 N         143.2653  140.1451  164.4995 N.ar    1  UNL1       -0.1675
      8 N         142.4149  141.2320  163.9118 N.ar    1  UNL1       -0.2487
      9 C         144.0666  139.9584  160.6805 C.ar    1  UNL1        0.0028
     10 C         143.5009  140.8159  159.5874 C.ar    1  UNL1       -0.0030
     11 C         143.9284  140.5982  158.1661 C.ar    1  UNL1        0.0103
     12 C         143.3187  139.4892  157.3610 C.ar    1  UNL1        0.0008
     13 C         143.7462  139.2715  155.9398 C.ar    1  UNL1        0.0039
     14 C         144.7834  140.1629  155.3237 C.ar    1  UNL1        0.0723
     15 C         145.3932  141.2720  156.1289 C.ar    1  UNL1        0.0152
     16 C         144.9657  141.4896  157.5501 C.ar    1  UNL1        0.0576
     17 CL        145.5754  142.5987  158.3553 Cl      1  UNL1       -0.0823
     18 C         145.2110  139.9453  153.9025 C.3     1  UNL1        0.4186
     19 F         145.6386  139.7278  152.4814 F       1  UNL1       -0.1659
     20 F         146.3927  140.8430  154.1206 F       1  UNL1       -0.1659
     21 F         144.0292  139.0477  153.6844 F       1  UNL1       -0.1659
     22 C         141.4950  142.1404  164.6726 C.3     1  UNL1        0.1273
     23 C         140.8877  141.6814  165.9650 C.ar    1  UNL1       -0.0001
     24 C         141.1786  142.4236  167.2357 C.ar    1  UNL1       -0.0023
     25 C         140.5713  141.9647  168.5282 C.ar    1  UNL1        0.0042
     26 C         139.6732  140.7634  168.5501 C.ar    1  UNL1        0.0533
     27 C         139.3824  140.0212  167.2795 C.ar    1  UNL1        0.0042
     28 C         139.9896  140.4801  165.9870 C.ar    1  UNL1       -0.0023
     29 C         139.0659  140.3044  169.8426 C.2     1  UNL1        0.2459
     30 O         139.8087  140.4990  171.1311 O.2     1  UNL1       -0.2701
     31 N         137.7158  139.6507  169.8466 N.am    1  UNL1       -0.3005
     32 H         137.2283  139.5230  169.0009 H       1  UNL1        0.1498
     33 C         137.1086  139.1917  171.1391 C.3     1  UNL1        0.0956
     34 C         136.1853  138.0097  171.1559 C.3     1  UNL1        0.0629
     35 C         135.8076  137.3716  172.4598 C.2     1  UNL1        0.0520
     36 O         135.3906  138.2261  173.6199 O.co2   1  UNL1       -0.5491
     37 O         135.8469  135.8790  172.6035 O.co2   1  UNL1       -0.5491
     38 C         141.1823  143.5077  164.1408 C.3     1  UNL1        0.0289
     39 C         139.7557  143.9470  163.9937 C.3     1  UNL1        0.0023
     40 C         138.9629  143.5304  162.7904 C.3     1  UNL1        0.0001
     41 C         139.1217  144.8029  165.0500 C.3     1  UNL1        0.0001
@<TRIPOS>UNITY_ATOM_ATTR
36 1
charge -1
@<TRIPOS>BOND
     1     1     2    1
     2     2     3   ar
     3     3     4   ar
     4     4     5   ar
     5     5     6   ar
     6     6     7   ar
     7     7     8   ar
     8     8    22    1
     9    22    38    1
    10    38    39    1
    11    39    40    1
    12    39    41    1
    13    22    23    1
    14    23    24   ar
    15    24    25   ar
    16    25    26   ar
    17    26    29    1
    18    29    30    2
    19    29    31   am
    20    31    33    1
    21    33    34    1
    22    34    35    1
    23    35    36   ar
    24    35    37   ar
    25    26    27   ar
    26    27    28   ar
    27     5     9   ar
    28     9    10   ar
    29    10    11    1
    30    11    12   ar
    31    12    13   ar
    32    13    14   ar
    33    14    18    1
    34    18    19    1
    35    18    20    1
    36    18    21    1
    37    14    15   ar
    38    15    16   ar
    39    16    17    1
    40    10     2   ar
    41    16    11   ar
    42     8     4   ar
    43    28    23   ar
    44    31    32    1
@<TRIPOS>MOLECULE
*****
 41 44 0 0 0
SMALL
GASTEIGER

@<TRIPOS>ATOM
      1 C         139.7883  143.1904  164.5191 C.3     1  UNL1        0.0311
      2 C         140.7071  142.2653  163.7774 C.ar    1  UNL1       -0.0203
      3 C         140.8849  142.4140  162.2954 C.ar    1  UNL1        0.0145
      4 C         141.8036  141.4889  161.5537 C.ar    1  UNL1        0.0794
      5 C         142.5446  140.4151  162.2940 C.ar    1  UNL1        0.0382
      6 C         143.3756  139.6569  161.3017 C.ar    1  UNL1        0.1216
      7 N         143.1483  140.2622  159.9482 N.ar    1  UNL1       -0.1675
      8 N         142.1767  141.3944  160.1039 N.ar    1  UNL1       -0.2487
      9 C         142.3668  140.2664  163.7759 C.ar    1  UNL1        0.0028
     10 C         141.4480  141.1916  164.5176 C.ar    1  UNL1       -0.0030
     11 C         141.2702  141.0429  165.9997 C.ar    1  UNL1        0.0103
     12 C         140.1331  140.2277  166.5406 C.ar    1  UNL1        0.0008
     13 C         139.9553  140.0790  168.0226 C.ar    1  UNL1        0.0039
     14 C         140.9146  140.7455  168.9636 C.ar    1  UNL1        0.0723
     15 C         142.0517  141.5606  168.4227 C.ar    1  UNL1        0.0152
     16 C         142.2295  141.7093  166.9407 C.ar    1  UNL1        0.0576
     17 CL        143.3666  142.5244  166.3997 Cl      1  UNL1       -0.0823
     18 C         140.7369  140.5968  170.4456 C.3     1  UNL1        0.4186
     19 F         140.5591  140.4482  171.9276 F       1  UNL1       -0.1659
     20 F         139.2748  140.3299  170.2435 F       1  UNL1       -0.1659
     21 F         142.1990  140.8638  170.6478 F       1  UNL1       -0.1659
     22 C         141.6677  142.2770  159.0031 C.3     1  UNL1        0.1273
     23 C         140.4364  141.8890  158.2394 C.ar    1  UNL1       -0.0001
     24 C         140.4810  141.7934  156.7431 C.ar    1  UNL1       -0.0023
     25 C         139.2497  141.4053  155.9793 C.ar    1  UNL1        0.0042
     26 C         137.9738  141.1128  156.7119 C.ar    1  UNL1        0.0533
     27 C         137.9292  141.2084  158.2081 C.ar    1  UNL1        0.0042
     28 C         139.1605  141.5965  158.9719 C.ar    1  UNL1       -0.0023
     29 C         136.7425  140.7248  155.9481 C.2     1  UNL1        0.2459
     30 O         136.7037  139.4269  155.1972 O.2     1  UNL1       -0.2701
     31 N         135.5500  141.6346  155.9354 N.am    1  UNL1       -0.3005
     32 H         135.5755  142.4864  156.4282 H       1  UNL1        0.1498
     33 C         134.3187  141.2465  155.1716 C.3     1  UNL1        0.0956
     34 C         133.0902  140.7987  155.9067 C.3     1  UNL1        0.0629
     35 C         133.1357  139.5686  156.7638 C.2     1  UNL1        0.0520
     36 O         132.1333  138.4722  156.5559 O.co2   1  UNL1       -0.5491
     37 O         134.1835  139.4348  157.8287 O.co2   1  UNL1       -0.5491
     38 C         142.3900  143.5478  158.6661 C.3     1  UNL1        0.0289
     39 C         141.6543  144.8548  158.6800 C.3     1  UNL1        0.0023
     40 C         141.7167  145.7634  157.4880 C.3     1  UNL1        0.0001
     41 C         140.8562  145.2536  159.8859 C.3     1  UNL1        0.0001
@<TRIPOS>UNITY_ATOM_ATTR
36 1
charge -1
@<TRIPOS>BOND
     1     1     2    1
     2     2     3   ar
     3     3     4   ar
     4     4     5   ar
     5     5     6   ar
     6     6     7   ar
     7     7     8   ar
     8     8    22    1
     9    22    38    1
    10    38    39    1
    11    39    40    1
    12    39    41    1
    13    22    23    1
    14    23    24   ar
    15    24    25   ar
    16    25    26   ar
    17    26    29    1
    18    29    30    2
    19    29    31   am
    20    31    33    1
    21    33    34    1
    22    34    35    1
    23    35    36   ar
    24    35    37   ar
    25    26    27   ar
    26    27    28   ar
    27     5     9   ar
    28     9    10   ar
    29    10    11    1
    30    11    12   ar
    31    12    13   ar
    32    13    14   ar
    33    14    18    1
    34    18    19    1
    35    18    20    1
    36    18    21    1
    37    14    15   ar
    38    15    16   ar
    39    16    17    1
    40    10     2   ar
    41    16    11   ar
    42     8     4   ar
    43    28    23   ar
    44    31    32    1
@<TRIPOS>MOLECULE
*****
 41 44 0 0 0
SMALL
GASTEIGER

@<TRIPOS>ATOM
      1 C         142.0477  141.0727  159.0231 C.3     1  UNL1        0.0311
      2 C         141.9000  142.1497  160.0567 C.ar    1  UNL1       -0.0203
      3 C         142.1157  141.8322  161.5067 C.ar    1  UNL1        0.0145
      4 C         141.9680  142.9092  162.5403 C.ar    1  UNL1        0.0794
      5 C         141.6046  144.3036  162.1239 C.ar    1  UNL1        0.0382
      6 C         141.5296  145.1516  163.3589 C.ar    1  UNL1        0.1216
      7 N         141.8467  144.2812  164.5387 N.ar    1  UNL1       -0.1675
      8 N         142.1176  142.8953  164.0328 N.ar    1  UNL1       -0.2487
      9 C         141.3889  144.6211  160.6739 C.ar    1  UNL1        0.0028
     10 C         141.5366  143.5441  159.6403 C.ar    1  UNL1       -0.0030
     11 C         141.3209  143.8616  158.1901 C.ar    1  UNL1        0.0103
     12 C         142.4471  144.4143  157.3678 C.ar    1  UNL1        0.0008
     13 C         142.2314  144.7318  155.9177 C.ar    1  UNL1        0.0039
     14 C         140.8895  144.4966  155.2900 C.ar    1  UNL1        0.0723
     15 C         139.7633  143.9439  156.1124 C.ar    1  UNL1        0.0152
     16 C         139.9790  143.6264  157.5624 C.ar    1  UNL1        0.0576
     17 CL        138.8528  143.0738  158.3849 Cl      1  UNL1       -0.0823
     18 C         140.6738  144.8141  153.8400 C.3     1  UNL1        0.4186
     19 F         140.4581  145.1315  152.3900 F       1  UNL1       -0.1659
     20 F         142.0824  144.3957  153.5388 F       1  UNL1       -0.1659
     21 F         139.2651  145.2324  154.1411 F       1  UNL1       -0.1659
     22 C         142.4754  141.7046  164.8720 C.3     1  UNL1        0.1273
     23 C         141.6862  141.3949  166.1094 C.ar    1  UNL1       -0.0001
     24 C         142.1926  141.8339  167.4514 C.ar    1  UNL1       -0.0023
     25 C         141.4034  141.5242  168.6889 C.ar    1  UNL1        0.0042
     26 C         140.1078  140.7754  168.5844 C.ar    1  UNL1        0.0533
     27 C         139.6015  140.3364  167.2425 C.ar    1  UNL1        0.0042
     28 C         140.3906  140.6461  166.0050 C.ar    1  UNL1       -0.0023
     29 C         139.3187  140.4656  169.8218 C.2     1  UNL1        0.2459
     30 O         139.8323  140.8917  171.1651 O.2     1  UNL1       -0.2701
     31 N         138.0158  139.7298  169.7159 N.am    1  UNL1       -0.3005
     32 H         137.6787  139.4502  168.8342 H       1  UNL1        0.1498
     33 C         137.2267  139.4201  170.9533 C.3     1  UNL1        0.0956
     34 C         136.2008  138.3259  170.9343 C.3     1  UNL1        0.0629
     35 C         136.0869  137.3843  172.0965 C.2     1  UNL1        0.0520
     36 O         136.9681  136.1727  172.1692 O.co2   1  UNL1       -0.5491
     37 O         135.0918  137.6545  173.1859 O.co2   1  UNL1       -0.5491
     38 C         143.6223  140.8237  164.4738 C.3     1  UNL1        0.0289
     39 C         143.4698  139.3319  164.5097 C.3     1  UNL1        0.0023
     40 C         143.6623  138.5891  165.7985 C.3     1  UNL1        0.0001
     41 C         143.1247  138.5829  163.2567 C.3     1  UNL1        0.0001
@<TRIPOS>UNITY_ATOM_ATTR
36 1
charge -1
@<TRIPOS>BOND
     1     1     2    1
     2     2     3   ar
     3     3     4   ar
     4     4     5   ar
     5     5     6   ar
     6     6     7   ar
     7     7     8   ar
     8     8    22    1
     9    22    38    1
    10    38    39    1
    11    39    40    1
    12    39    41    1
    13    22    23    1
    14    23    24   ar
    15    24    25   ar
    16    25    26   ar
    17    26    29    1
    18    29    30    2
    19    29    31   am
    20    31    33    1
    21    33    34    1
    22    34    35    1
    23    35    36   ar
    24    35    37   ar
    25    26    27   ar
    26    27    28   ar
    27     5     9   ar
    28     9    10   ar
    29    10    11    1
    30    11    12   ar
    31    12    13   ar
    32    13    14   ar
    33    14    18    1
    34    18    19    1
    35    18    20    1
    36    18    21    1
    37    14    15   ar
    38    15    16   ar
    39    16    17    1
    40    10     2   ar
    41    16    11   ar
    42     8     4   ar
    43    28    23   ar
    44    31    32    1
