@<TRIPOS>MOLECULE
*****
 35 38 0 0 0
SMALL
GASTEIGER

@<TRIPOS>ATOM
      1 N         142.2677  144.4079  160.8800 N.3     1  UNL1       -0.2673
      2 C         142.8035  143.1808  160.2040 C.3     1  UNL1        0.1035
      3 C         143.6015  142.1810  160.9873 C.3     1  UNL1        0.1470
      4 C         144.3996  141.1811  161.7706 C.3     1  UNL1        0.1035
      5 N         144.6618  141.4084  163.2299 N.3     1  UNL1       -0.2684
      6 C         144.1259  142.6356  163.9059 C.3     1  UNL1        0.1035
      7 C         143.3279  143.6354  163.1226 C.3     1  UNL1        0.1470
      8 C         142.5299  144.6352  162.3394 C.3     1  UNL1        0.1035
      9 O         143.8637  142.4083  162.4466 O.3     1  UNL1       -0.3530
     10 C         141.4696  145.4077  160.0968 C.3     1  UNL1        0.0913
     11 C         139.9707  145.3635  160.1312 C.3     1  UNL1        0.1087
     12 N         139.2449  145.5393  161.4322 N.3     1  UNL1       -0.1780
     13 H         139.7852  146.2066  161.9829 H       1  UNL1        0.1488
     14 S         138.9910  144.3539  162.3155 S.O2    1  UNL1        0.0603
     15 O         139.3989  145.1592  163.5134 O.2     1  UNL1       -0.1530
     16 O         138.5830  143.5487  161.1175 O.2     1  UNL1       -0.1530
     17 C         138.2292  140.7976  164.9655 C.ar    1  UNL1        0.0685
     18 C         137.4424  140.9725  163.7005 C.ar    1  UNL1        0.0116
     19 C         137.6963  142.1580  162.8171 C.ar    1  UNL1        0.0206
     20 C         138.7371  143.1685  163.1988 C.ar    1  UNL1        0.1220
     21 C         139.5239  142.9935  164.4638 C.ar    1  UNL1        0.0206
     22 C         139.2700  141.8081  165.3471 C.ar    1  UNL1        0.0116
     23 N         137.7214  138.4267  166.7321 N.1     1  UNL1       -0.1908
     24 C         137.9753  139.6122  165.8488 C.1     1  UNL1        0.1004
     25 C         145.4598  140.4087  164.0132 C.3     1  UNL1        0.0761
     26 C         144.7599  139.3301  164.7858 C.3     1  UNL1        0.0646
     27 C         143.4949  138.7257  164.2524 C.3     1  UNL1        0.2070
     28 O         142.2183  139.5128  164.2792 O.3     1  UNL1       -0.4731
     29 C         141.0975  139.1558  163.3484 C.ar    1  UNL1        0.1658
     30 C         140.8672  139.9651  162.1066 C.ar    1  UNL1        0.0392
     31 C         139.7464  139.6081  161.1759 C.ar    1  UNL1        0.0033
     32 C         138.8558  138.4418  161.4870 C.ar    1  UNL1        0.0025
     33 C         139.0860  137.6326  162.7288 C.ar    1  UNL1        0.0328
     34 C         140.2069  137.9896  163.6595 C.ar    1  UNL1        0.1738
     35 F         140.4372  137.1804  164.9014 F       1  UNL1       -0.2010
@<TRIPOS>BOND
     1    23    24    3
     2    24    17    1
     3    17    18   ar
     4    18    19   ar
     5    19    20   ar
     6    20    14    1
     7    14    15    2
     8    14    16    2
     9    14    12    1
    10    12    11    1
    11    11    10    1
    12    10     1    1
    13     1     2    1
    14     2     3    1
    15     3     4    1
    16     4     5    1
    17     5    25    1
    18    25    26    1
    19    26    27    1
    20    27    28    1
    21    28    29    1
    22    29    30   ar
    23    30    31   ar
    24    31    32   ar
    25    32    33   ar
    26    33    34   ar
    27    34    35    1
    28     5     6    1
    29     6     7    1
    30     7     8    1
    31     7     9    1
    32    20    21   ar
    33    21    22   ar
    34    22    17   ar
    35     8     1    1
    36     9     3    1
    37    34    29   ar
    38    12    13    1
@<TRIPOS>MOLECULE
*****
 35 38 0 0 0
SMALL
GASTEIGER

@<TRIPOS>ATOM
      1 N         139.6831  142.7610  160.2853 N.3     1  UNL1       -0.2673
      2 C         138.7251  142.7560  161.4394 C.3     1  UNL1        0.1035
      3 C         138.4171  141.4731  162.1529 C.3     1  UNL1        0.1470
      4 C         138.1089  140.1901  162.8664 C.3     1  UNL1        0.1035
      5 N         138.7589  138.9120  162.4257 N.3     1  UNL1       -0.2684
      6 C         139.7169  138.9170  161.2714 C.3     1  UNL1        0.1035
      7 C         140.0250  140.2000  160.5580 C.3     1  UNL1        0.1470
      8 C         140.3331  141.4829  159.8446 C.3     1  UNL1        0.1035
      9 O         139.0670  140.1950  161.7122 O.3     1  UNL1       -0.3530
     10 C         139.9913  144.0440  159.5718 C.3     1  UNL1        0.0913
     11 C         141.3128  144.7212  159.7835 C.3     1  UNL1        0.1087
     12 N         141.5655  145.4953  161.0433 N.3     1  UNL1       -0.1780
     13 H         142.3815  146.0821  160.8696 H       1  UNL1        0.1488
     14 S         141.8203  144.7696  162.3311 S.O2    1  UNL1        0.0603
     15 O         143.0875  144.2040  161.7617 O.2     1  UNL1       -0.1530
     16 O         140.5530  145.3352  162.9005 O.2     1  UNL1       -0.1530
     17 C         142.5844  142.5926  166.1946 C.ar    1  UNL1        0.0685
     18 C         143.7327  143.1586  165.4129 C.ar    1  UNL1        0.0116
     19 C         143.4780  143.8843  164.1250 C.ar    1  UNL1        0.0206
     20 C         142.0750  144.0440  163.6189 C.ar    1  UNL1        0.1220
     21 C         140.9267  143.4779  164.4007 C.ar    1  UNL1        0.0206
     22 C         141.1814  142.7522  165.6884 C.ar    1  UNL1        0.0116
     23 N         143.0939  141.1412  168.7702 N.1     1  UNL1       -0.1908
     24 C         142.8391  141.8669  167.4824 C.1     1  UNL1        0.1004
     25 C         138.4508  137.6291  163.1391 C.3     1  UNL1        0.0761
     26 C         139.0919  137.3343  164.4628 C.3     1  UNL1        0.0646
     27 C         140.5486  137.6246  164.6719 C.3     1  UNL1        0.2070
     28 O         141.0110  139.0380  164.8681 O.3     1  UNL1       -0.4731
     29 C         142.3577  139.4635  164.3625 C.ar    1  UNL1        0.1658
     30 C         142.4622  140.3144  163.1317 C.ar    1  UNL1        0.0392
     31 C         143.8088  140.7399  162.6262 C.ar    1  UNL1        0.0033
     32 C         145.0509  140.3146  163.3517 C.ar    1  UNL1        0.0025
     33 C         144.9464  139.4637  164.5825 C.ar    1  UNL1        0.0328
     34 C         143.5998  139.0382  165.0880 C.ar    1  UNL1        0.1738
     35 F         143.4953  138.1873  166.3189 F       1  UNL1       -0.2010
@<TRIPOS>BOND
     1    23    24    3
     2    24    17    1
     3    17    18   ar
     4    18    19   ar
     5    19    20   ar
     6    20    14    1
     7    14    15    2
     8    14    16    2
     9    14    12    1
    10    12    11    1
    11    11    10    1
    12    10     1    1
    13     1     2    1
    14     2     3    1
    15     3     4    1
    16     4     5    1
    17     5    25    1
    18    25    26    1
    19    26    27    1
    20    27    28    1
    21    28    29    1
    22    29    30   ar
    23    30    31   ar
    24    31    32   ar
    25    32    33   ar
    26    33    34   ar
    27    34    35    1
    28     5     6    1
    29     6     7    1
    30     7     8    1
    31     7     9    1
    32    20    21   ar
    33    21    22   ar
    34    22    17   ar
    35     8     1    1
    36     9     3    1
    37    34    29   ar
    38    12    13    1
@<TRIPOS>MOLECULE
*****
 35 38 0 0 0
SMALL
GASTEIGER

@<TRIPOS>ATOM
      1 N         142.0982  143.3906  161.2438 N.3     1  UNL1       -0.2673
      2 C         142.9732  143.8094  162.3879 C.3     1  UNL1        0.1035
      3 C         143.5495  142.7753  163.3089 C.3     1  UNL1        0.1470
      4 C         144.1258  141.7411  164.2301 C.3     1  UNL1        0.1035
      5 N         143.8271  140.2882  164.0071 N.3     1  UNL1       -0.2684
      6 C         142.9520  139.8694  162.8630 C.3     1  UNL1        0.1035
      7 C         142.3757  140.9035  161.9419 C.3     1  UNL1        0.1470
      8 C         141.7994  141.9377  161.0209 C.3     1  UNL1        0.1035
      9 O         143.2507  141.3223  163.0859 O.3     1  UNL1       -0.3530
     10 C         141.5218  144.4248  160.3227 C.3     1  UNL1        0.0913
     11 C         140.6912  145.5438  160.8774 C.3     1  UNL1        0.1087
     12 N         139.2989  145.2735  161.3660 N.3     1  UNL1       -0.1780
     13 H         139.0004  146.1033  161.8786 H       1  UNL1        0.1488
     14 S         139.0318  144.0957  162.2556 S.O2    1  UNL1        0.0603
     15 O         139.7269  144.7928  163.3873 O.2     1  UNL1       -0.1530
     16 O         138.3366  143.3986  161.1239 O.2     1  UNL1       -0.1530
     17 C         138.2302  140.5623  164.9244 C.ar    1  UNL1        0.0685
     18 C         139.0591  141.7077  165.4253 C.ar    1  UNL1        0.0116
     19 C         139.3263  142.8856  164.5357 C.ar    1  UNL1        0.0206
     20 C         138.7646  142.9179  163.1452 C.ar    1  UNL1        0.1220
     21 C         137.9357  141.7724  162.6443 C.ar    1  UNL1        0.0206
     22 C         137.6685  140.5947  163.5339 C.ar    1  UNL1        0.0116
     23 N         137.6958  138.2067  166.7037 N.1     1  UNL1       -0.1908
     24 C         137.9630  139.3845  165.8140 C.1     1  UNL1        0.1004
     25 C         144.4034  139.2540  164.9282 C.3     1  UNL1        0.0761
     26 C         143.4998  138.4638  165.8277 C.3     1  UNL1        0.0646
     27 C         142.8767  139.1166  167.0259 C.3     1  UNL1        0.2070
     28 O         141.4714  139.6357  166.9513 O.3     1  UNL1       -0.4731
     29 C         140.9612  140.5732  168.0052 C.ar    1  UNL1        0.1658
     30 C         139.8891  140.1240  168.9532 C.ar    1  UNL1        0.0392
     31 C         139.3789  141.0615  170.0071 C.ar    1  UNL1        0.0033
     32 C         139.9408  142.4482  170.1130 C.ar    1  UNL1        0.0025
     33 C         141.0129  142.8974  169.1651 C.ar    1  UNL1        0.0328
     34 C         141.5231  141.9599  168.1112 C.ar    1  UNL1        0.1738
     35 F         142.5953  142.4092  167.1631 F       1  UNL1       -0.2010
@<TRIPOS>BOND
     1    23    24    3
     2    24    17    1
     3    17    18   ar
     4    18    19   ar
     5    19    20   ar
     6    20    14    1
     7    14    15    2
     8    14    16    2
     9    14    12    1
    10    12    11    1
    11    11    10    1
    12    10     1    1
    13     1     2    1
    14     2     3    1
    15     3     4    1
    16     4     5    1
    17     5    25    1
    18    25    26    1
    19    26    27    1
    20    27    28    1
    21    28    29    1
    22    29    30   ar
    23    30    31   ar
    24    31    32   ar
    25    32    33   ar
    26    33    34   ar
    27    34    35    1
    28     5     6    1
    29     6     7    1
    30     7     8    1
    31     7     9    1
    32    20    21   ar
    33    21    22   ar
    34    22    17   ar
    35     8     1    1
    36     9     3    1
    37    34    29   ar
    38    12    13    1
@<TRIPOS>MOLECULE
*****
 35 38 0 0 0
SMALL
GASTEIGER

@<TRIPOS>ATOM
      1 N         141.8003  141.0237  159.5320 N.3     1  UNL1       -0.2673
      2 C         142.7579  141.8223  160.3657 C.3     1  UNL1        0.1035
      3 C         142.2384  142.8462  161.3310 C.3     1  UNL1        0.1470
      4 C         141.7188  143.8701  162.2963 C.3     1  UNL1        0.1035
      5 N         140.2417  144.0953  162.4279 N.3     1  UNL1       -0.2684
      6 C         139.2840  143.2965  161.5941 C.3     1  UNL1        0.1035
      7 C         139.8036  142.2727  160.6288 C.3     1  UNL1        0.1470
      8 C         140.3232  141.2489  159.6636 C.3     1  UNL1        0.1035
      9 O         140.7612  143.0713  161.4625 O.3     1  UNL1       -0.3530
     10 C         142.3199  139.9998  158.5667 C.3     1  UNL1        0.0913
     11 C         142.0748  138.5412  158.8164 C.3     1  UNL1        0.1087
     12 N         142.9912  137.7706  159.7201 N.3     1  UNL1       -0.1780
     13 H         142.7719  136.7831  159.5890 H       1  UNL1        0.1488
     14 S         142.9754  138.0252  161.1982 S.O2    1  UNL1        0.0603
     15 O         144.3733  138.5635  161.1203 O.2     1  UNL1       -0.1530
     16 O         141.5775  137.4869  161.2760 O.2     1  UNL1       -0.1530
     17 C         142.9282  138.7891  165.6326 C.ar    1  UNL1        0.0685
     18 C         144.0407  139.3373  164.7890 C.ar    1  UNL1        0.0116
     19 C         144.0565  139.0827  163.3108 C.ar    1  UNL1        0.0206
     20 C         142.9597  138.2799  162.6763 C.ar    1  UNL1        0.1220
     21 C         141.8471  137.7317  163.5200 C.ar    1  UNL1        0.0206
     22 C         141.8314  137.9863  164.9981 C.ar    1  UNL1        0.0116
     23 N         142.8967  139.2984  168.5889 N.1     1  UNL1       -0.1908
     24 C         142.9125  139.0437  167.1107 C.1     1  UNL1        0.1004
     25 C         139.7221  145.1191  163.3931 C.3     1  UNL1        0.0761
     26 C         138.9333  144.6861  164.5934 C.3     1  UNL1        0.0646
     27 C         139.6088  143.9394  165.7052 C.3     1  UNL1        0.2070
     28 O         140.3681  142.6799  165.4098 O.3     1  UNL1       -0.4731
     29 C         139.6916  141.3477  165.5424 C.ar    1  UNL1        0.1658
     30 C         139.1099  140.6781  164.3327 C.ar    1  UNL1        0.0392
     31 C         138.4335  139.3460  164.4654 C.ar    1  UNL1        0.0033
     32 C         138.3387  138.6833  165.8078 C.ar    1  UNL1        0.0025
     33 C         138.9203  139.3528  167.0174 C.ar    1  UNL1        0.0328
     34 C         139.5967  140.6850  166.8848 C.ar    1  UNL1        0.1738
     35 F         140.1784  141.3546  168.0945 F       1  UNL1       -0.2010
@<TRIPOS>BOND
     1    23    24    3
     2    24    17    1
     3    17    18   ar
     4    18    19   ar
     5    19    20   ar
     6    20    14    1
     7    14    15    2
     8    14    16    2
     9    14    12    1
    10    12    11    1
    11    11    10    1
    12    10     1    1
    13     1     2    1
    14     2     3    1
    15     3     4    1
    16     4     5    1
    17     5    25    1
    18    25    26    1
    19    26    27    1
    20    27    28    1
    21    28    29    1
    22    29    30   ar
    23    30    31   ar
    24    31    32   ar
    25    32    33   ar
    26    33    34   ar
    27    34    35    1
    28     5     6    1
    29     6     7    1
    30     7     8    1
    31     7     9    1
    32    20    21   ar
    33    21    22   ar
    34    22    17   ar
    35     8     1    1
    36     9     3    1
    37    34    29   ar
    38    12    13    1
@<TRIPOS>MOLECULE
*****
 35 38 0 0 0
SMALL
GASTEIGER

@<TRIPOS>ATOM
      1 N         140.3987  140.1253  159.5034 N.3     1  UNL1       -0.2673
      2 C         140.8434  141.5577  159.4813 C.3     1  UNL1        0.1035
      3 C         140.1719  142.5651  160.3667 C.3     1  UNL1        0.1470
      4 C         139.5004  143.5727  161.2522 C.3     1  UNL1        0.1035
      5 N         138.3843  143.1478  162.1598 N.3     1  UNL1       -0.2684
      6 C         137.9397  141.7153  162.1819 C.3     1  UNL1        0.1035
      7 C         138.6111  140.7078  161.2965 C.3     1  UNL1        0.1470
      8 C         139.2826  139.7004  160.4110 C.3     1  UNL1        0.1035
      9 O         139.0558  142.1402  161.2743 O.3     1  UNL1       -0.3530
     10 C         141.0702  139.1177  158.6179 C.3     1  UNL1        0.0913
     11 C         142.5280  138.8141  158.7984 C.3     1  UNL1        0.1087
     12 N         142.9579  137.7399  159.7530 N.3     1  UNL1       -0.1780
     13 H         142.3422  136.9421  159.5952 H       1  UNL1        0.1488
     14 S         142.9548  138.0036  161.2296 S.O2    1  UNL1        0.0603
     15 O         141.6527  137.2703  161.3580 O.2     1  UNL1       -0.1530
     16 O         144.2570  138.7370  161.1013 O.2     1  UNL1       -0.1530
     17 C         142.9458  138.7950  165.6595 C.ar    1  UNL1        0.0685
     18 C         141.8079  138.0484  165.0287 C.ar    1  UNL1        0.0116
     19 C         141.8109  137.7846  163.5520 C.ar    1  UNL1        0.0206
     20 C         142.9518  138.2674  162.7062 C.ar    1  UNL1        0.1220
     21 C         144.0897  139.0140  163.3371 C.ar    1  UNL1        0.0206
     22 C         144.0866  139.2778  164.8137 C.ar    1  UNL1        0.0116
     23 N         142.9397  139.3224  168.6128 N.1     1  UNL1       -0.1908
     24 C         142.9427  139.0587  167.1361 C.1     1  UNL1        0.1004
     25 C         137.7128  144.1552  163.0453 C.3     1  UNL1        0.0761
     26 C         138.2140  144.3791  164.4413 C.3     1  UNL1        0.0646
     27 C         139.0898  143.3531  165.0972 C.3     1  UNL1        0.2070
     28 O         140.5075  143.6926  165.4504 O.3     1  UNL1       -0.4731
     29 C         141.5748  143.6452  164.3974 C.ar    1  UNL1        0.1658
     30 C         142.3373  144.8881  164.0459 C.ar    1  UNL1        0.0392
     31 C         143.4045  144.8407  162.9929 C.ar    1  UNL1        0.0033
     32 C         143.7092  143.5503  162.2915 C.ar    1  UNL1        0.0025
     33 C         142.9466  142.3073  162.6429 C.ar    1  UNL1        0.0328
     34 C         141.8794  142.3548  163.6959 C.ar    1  UNL1        0.1738
     35 F         141.1168  141.1118  164.0475 F       1  UNL1       -0.2010
@<TRIPOS>BOND
     1    23    24    3
     2    24    17    1
     3    17    18   ar
     4    18    19   ar
     5    19    20   ar
     6    20    14    1
     7    14    15    2
     8    14    16    2
     9    14    12    1
    10    12    11    1
    11    11    10    1
    12    10     1    1
    13     1     2    1
    14     2     3    1
    15     3     4    1
    16     4     5    1
    17     5    25    1
    18    25    26    1
    19    26    27    1
    20    27    28    1
    21    28    29    1
    22    29    30   ar
    23    30    31   ar
    24    31    32   ar
    25    32    33   ar
    26    33    34   ar
    27    34    35    1
    28     5     6    1
    29     6     7    1
    30     7     8    1
    31     7     9    1
    32    20    21   ar
    33    21    22   ar
    34    22    17   ar
    35     8     1    1
    36     9     3    1
    37    34    29   ar
    38    12    13    1
@<TRIPOS>MOLECULE
*****
 35 38 0 0 0
SMALL
GASTEIGER

@<TRIPOS>ATOM
      1 N         143.2557  141.1129  160.9213 N.3     1  UNL1       -0.2673
      2 C         141.8316  141.5811  160.9726 C.3     1  UNL1        0.1035
      3 C         140.7718  140.6958  161.5582 C.3     1  UNL1        0.1470
      4 C         139.7118  139.8106  162.1439 C.3     1  UNL1        0.1035
      5 N         140.0761  138.4572  162.6783 N.3     1  UNL1       -0.2684
      6 C         141.5003  137.9890  162.6271 C.3     1  UNL1        0.1035
      7 C         142.5601  138.8743  162.0414 C.3     1  UNL1        0.1470
      8 C         143.6200  139.7595  161.4558 C.3     1  UNL1        0.1035
      9 O         141.1360  139.3424  162.0926 O.3     1  UNL1       -0.3530
     10 C         144.3157  141.9981  160.3356 C.3     1  UNL1        0.0913
     11 C         145.2684  142.7251  161.2377 C.3     1  UNL1        0.1087
     12 N         144.7426  143.5569  162.3698 N.3     1  UNL1       -0.1780
     13 H         145.4871  144.2036  162.6306 H       1  UNL1        0.1488
     14 S         144.2803  142.8960  163.6345 S.O2    1  UNL1        0.0603
     15 O         142.9973  143.6704  163.5702 O.2     1  UNL1       -0.1530
     16 O         145.5634  142.1217  163.6988 O.2     1  UNL1       -0.1530
     17 C         142.8936  140.9133  167.4287 C.ar    1  UNL1        0.0685
     18 C         142.8885  140.1491  166.1380 C.ar    1  UNL1        0.0116
     19 C         143.3508  140.8100  164.8732 C.ar    1  UNL1        0.0206
     20 C         143.8181  142.2351  164.8992 C.ar    1  UNL1        0.1220
     21 C         143.8232  142.9993  166.1900 C.ar    1  UNL1        0.0206
     22 C         143.3609  142.3384  167.4547 C.ar    1  UNL1        0.0116
     23 N         141.9691  139.5914  169.9581 N.1     1  UNL1       -0.1908
     24 C         142.4314  140.2524  168.6934 C.1     1  UNL1        0.1004
     25 C         139.0162  137.5720  163.2640 C.3     1  UNL1        0.0761
     26 C         138.9056  137.4180  164.7520 C.3     1  UNL1        0.0646
     27 C         138.7097  138.6265  165.6186 C.3     1  UNL1        0.2070
     28 O         137.8723  139.7713  165.1308 O.3     1  UNL1       -0.4731
     29 C         138.4293  141.1641  165.1370 C.ar    1  UNL1        0.1658
     30 C         139.5240  141.5298  166.0951 C.ar    1  UNL1        0.0392
     31 C         140.0810  142.9225  166.1013 C.ar    1  UNL1        0.0033
     32 C         139.5432  143.9496  165.1495 C.ar    1  UNL1        0.0025
     33 C         138.4485  143.5839  164.1915 C.ar    1  UNL1        0.0328
     34 C         137.8915  142.1912  164.1852 C.ar    1  UNL1        0.1738
     35 F         136.7968  141.8255  163.2272 F       1  UNL1       -0.2010
@<TRIPOS>BOND
     1    23    24    3
     2    24    17    1
     3    17    18   ar
     4    18    19   ar
     5    19    20   ar
     6    20    14    1
     7    14    15    2
     8    14    16    2
     9    14    12    1
    10    12    11    1
    11    11    10    1
    12    10     1    1
    13     1     2    1
    14     2     3    1
    15     3     4    1
    16     4     5    1
    17     5    25    1
    18    25    26    1
    19    26    27    1
    20    27    28    1
    21    28    29    1
    22    29    30   ar
    23    30    31   ar
    24    31    32   ar
    25    32    33   ar
    26    33    34   ar
    27    34    35    1
    28     5     6    1
    29     6     7    1
    30     7     8    1
    31     7     9    1
    32    20    21   ar
    33    21    22   ar
    34    22    17   ar
    35     8     1    1
    36     9     3    1
    37    34    29   ar
    38    12    13    1
@<TRIPOS>MOLECULE
*****
 35 38 0 0 0
SMALL
GASTEIGER

@<TRIPOS>ATOM
      1 N         139.6182  141.3568  158.9856 N.3     1  UNL1       -0.2673
      2 C         138.5615  140.7025  159.8255 C.3     1  UNL1        0.1035
      3 C         138.9488  139.6961  160.8681 C.3     1  UNL1        0.1470
      4 C         139.3360  138.6897  161.9108 C.3     1  UNL1        0.1035
      5 N         140.7799  138.3375  162.1137 N.3     1  UNL1       -0.2684
      6 C         141.8366  138.9918  161.2738 C.3     1  UNL1        0.1035
      7 C         141.4493  139.9982  160.2311 C.3     1  UNL1        0.1470
      8 C         141.0621  141.0046  159.1885 C.3     1  UNL1        0.1035
      9 O         140.3927  139.3440  161.0709 O.3     1  UNL1       -0.3530
     10 C         139.2309  142.3632  157.9429 C.3     1  UNL1        0.0913
     11 C         139.9060  143.7022  157.9057 C.3     1  UNL1        0.1087
     12 N         139.7462  144.6549  159.0532 N.3     1  UNL1       -0.1780
     13 H         139.8558  145.5950  158.6729 H       1  UNL1        0.1488
     14 S         140.6581  144.5590  160.2403 S.O2    1  UNL1        0.0603
     15 O         139.4733  144.3347  161.1324 O.2     1  UNL1       -0.1530
     16 O         141.8429  144.7834  159.3482 O.2     1  UNL1       -0.1530
     17 C         143.3939  144.2713  163.8015 C.ar    1  UNL1        0.0685
     18 C         142.2120  145.1941  163.8364 C.ar    1  UNL1        0.0116
     19 C         141.2999  145.2900  162.6493 C.ar    1  UNL1        0.0206
     20 C         141.5700  144.4631  161.4273 C.ar    1  UNL1        0.1220
     21 C         142.7521  143.5403  161.3924 C.ar    1  UNL1        0.0206
     22 C         143.6640  143.4444  162.5795 C.ar    1  UNL1        0.0116
     23 N         145.2179  144.0795  166.1756 N.1     1  UNL1       -0.1908
     24 C         144.3059  144.1754  164.9885 C.1     1  UNL1        0.1004
     25 C         141.1671  137.3311  163.1563 C.3     1  UNL1        0.0761
     26 C         141.4708  137.7794  164.5552 C.3     1  UNL1        0.0646
     27 C         142.7355  138.5327  164.8435 C.3     1  UNL1        0.2070
     28 O         142.8754  139.9596  164.4030 O.3     1  UNL1       -0.4731
     29 C         141.8692  140.9821  164.8416 C.ar    1  UNL1        0.1658
     30 C         140.7732  141.4040  163.9085 C.ar    1  UNL1        0.0392
     31 C         139.7671  142.4264  164.3470 C.ar    1  UNL1        0.0033
     32 C         139.8570  143.0269  165.7186 C.ar    1  UNL1        0.0025
     33 C         140.9530  142.6050  166.6517 C.ar    1  UNL1        0.0328
     34 C         141.9591  141.5826  166.2132 C.ar    1  UNL1        0.1738
     35 F         143.0552  141.1607  167.1463 F       1  UNL1       -0.2010
@<TRIPOS>BOND
     1    23    24    3
     2    24    17    1
     3    17    18   ar
     4    18    19   ar
     5    19    20   ar
     6    20    14    1
     7    14    15    2
     8    14    16    2
     9    14    12    1
    10    12    11    1
    11    11    10    1
    12    10     1    1
    13     1     2    1
    14     2     3    1
    15     3     4    1
    16     4     5    1
    17     5    25    1
    18    25    26    1
    19    26    27    1
    20    27    28    1
    21    28    29    1
    22    29    30   ar
    23    30    31   ar
    24    31    32   ar
    25    32    33   ar
    26    33    34   ar
    27    34    35    1
    28     5     6    1
    29     6     7    1
    30     7     8    1
    31     7     9    1
    32    20    21   ar
    33    21    22   ar
    34    22    17   ar
    35     8     1    1
    36     9     3    1
    37    34    29   ar
    38    12    13    1
@<TRIPOS>MOLECULE
*****
 35 38 0 0 0
SMALL
GASTEIGER

@<TRIPOS>ATOM
      1 N         140.6675  140.7680  159.4381 N.3     1  UNL1       -0.2673
      2 C         139.2153  140.8383  159.8068 C.3     1  UNL1        0.1035
      3 C         138.7409  141.8637  160.7934 C.3     1  UNL1        0.1470
      4 C         138.2663  142.8891  161.7801 C.3     1  UNL1        0.1035
      5 N         139.2441  143.8442  162.3980 N.3     1  UNL1       -0.2684
      6 C         140.6965  143.7738  162.0292 C.3     1  UNL1        0.1035
      7 C         141.1709  142.7484  161.0426 C.3     1  UNL1        0.1470
      8 C         141.6453  141.7230  160.0560 C.3     1  UNL1        0.1035
      9 O         139.7187  142.8187  161.4113 O.3     1  UNL1       -0.3530
     10 C         141.1421  139.7425  158.4515 C.3     1  UNL1        0.0913
     11 C         141.3816  138.3297  158.8947 C.3     1  UNL1        0.1087
     12 N         142.6433  137.9765  159.6250 N.3     1  UNL1       -0.1780
     13 H         142.8295  136.9923  159.4321 H       1  UNL1        0.1488
     14 S         142.7219  138.1485  161.1130 S.O2    1  UNL1        0.0603
     15 O         141.3472  137.5650  161.2530 O.2     1  UNL1       -0.1530
     16 O         144.0966  138.7319  160.9730 O.2     1  UNL1       -0.1530
     17 C         142.9575  138.6644  165.5771 C.ar    1  UNL1        0.0685
     18 C         144.0525  139.1979  164.7017 C.ar    1  UNL1        0.0116
     19 C         143.9740  139.0259  163.2136 C.ar    1  UNL1        0.0206
     20 C         142.8004  138.3205  162.6010 C.ar    1  UNL1        0.1220
     21 C         141.7054  137.7870  163.4766 C.ar    1  UNL1        0.0206
     22 C         141.7840  137.9590  164.9646 C.ar    1  UNL1        0.0116
     23 N         143.1146  139.0085  168.5532 N.1     1  UNL1       -0.1908
     24 C         143.0361  138.8364  167.0651 C.1     1  UNL1        0.1004
     25 C         138.7697  144.8695  163.3846 C.3     1  UNL1        0.0761
     26 C         139.1122  144.7267  164.8380 C.3     1  UNL1        0.0646
     27 C         139.3701  143.3676  165.4177 C.3     1  UNL1        0.2070
     28 O         140.5167  143.1604  166.3624 O.3     1  UNL1       -0.4731
     29 C         140.2961  142.4508  167.6655 C.ar    1  UNL1        0.1658
     30 C         140.4056  143.2044  168.9578 C.ar    1  UNL1        0.0392
     31 C         140.1850  142.4947  170.2607 C.ar    1  UNL1        0.0033
     32 C         139.8549  141.0315  170.2714 C.ar    1  UNL1        0.0025
     33 C         139.7454  140.2780  168.9791 C.ar    1  UNL1        0.0328
     34 C         139.9660  140.9876  167.6761 C.ar    1  UNL1        0.1738
     35 F         139.8565  140.2341  166.3837 F       1  UNL1       -0.2010
@<TRIPOS>BOND
     1    23    24    3
     2    24    17    1
     3    17    18   ar
     4    18    19   ar
     5    19    20   ar
     6    20    14    1
     7    14    15    2
     8    14    16    2
     9    14    12    1
    10    12    11    1
    11    11    10    1
    12    10     1    1
    13     1     2    1
    14     2     3    1
    15     3     4    1
    16     4     5    1
    17     5    25    1
    18    25    26    1
    19    26    27    1
    20    27    28    1
    21    28    29    1
    22    29    30   ar
    23    30    31   ar
    24    31    32   ar
    25    32    33   ar
    26    33    34   ar
    27    34    35    1
    28     5     6    1
    29     6     7    1
    30     7     8    1
    31     7     9    1
    32    20    21   ar
    33    21    22   ar
    34    22    17   ar
    35     8     1    1
    36     9     3    1
    37    34    29   ar
    38    12    13    1
@<TRIPOS>MOLECULE
*****
 35 38 0 0 0
SMALL
GASTEIGER

@<TRIPOS>ATOM
      1 N         141.6652  141.1050  159.6318 N.3     1  UNL1       -0.2673
      2 C         140.1773  140.9238  159.6875 C.3     1  UNL1        0.1035
      3 C         139.3461  141.8112  160.5659 C.3     1  UNL1        0.1470
      4 C         138.5148  142.6986  161.4443 C.3     1  UNL1        0.1035
      5 N         139.1716  143.7672  162.2670 N.3     1  UNL1       -0.2684
      6 C         140.6596  143.9483  162.2114 C.3     1  UNL1        0.1035
      7 C         141.4908  143.0609  161.3330 C.3     1  UNL1        0.1470
      8 C         142.3220  142.1735  160.4546 C.3     1  UNL1        0.1035
      9 O         140.0029  142.8797  161.3886 O.3     1  UNL1       -0.3530
     10 C         142.4965  140.2175  158.7534 C.3     1  UNL1        0.0913
     11 C         142.8913  138.8503  159.2275 C.3     1  UNL1        0.1087
     12 N         143.3397  138.6484  160.6447 N.3     1  UNL1       -0.1780
     13 H         143.8654  137.7745  160.6655 H       1  UNL1        0.1488
     14 S         142.3266  138.5706  161.7480 S.O2    1  UNL1        0.0603
     15 O         143.1131  139.5719  162.5409 O.2     1  UNL1       -0.1530
     16 O         141.5400  137.5692  160.9552 O.2     1  UNL1       -0.1530
     17 C         139.2871  138.3371  165.0581 C.ar    1  UNL1        0.0685
     18 C         139.3872  139.5756  164.2178 C.ar    1  UNL1        0.0116
     19 C         140.4004  139.6535  163.1144 C.ar    1  UNL1        0.0206
     20 C         141.3134  138.4928  162.8514 C.ar    1  UNL1        0.1220
     21 C         141.2133  137.2543  163.6917 C.ar    1  UNL1        0.0206
     22 C         140.2001  137.1765  164.7951 C.ar    1  UNL1        0.0116
     23 N         137.2607  138.1815  167.2649 N.1     1  UNL1       -0.1908
     24 C         138.2739  138.2593  166.1615 C.1     1  UNL1        0.1004
     25 C         138.3404  144.6546  163.1454 C.3     1  UNL1        0.0761
     26 C         138.6565  144.7716  164.6071 C.3     1  UNL1        0.0646
     27 C         139.1516  143.5759  165.3655 C.3     1  UNL1        0.2070
     28 O         140.6129  143.4354  165.6734 O.3     1  UNL1       -0.4731
     29 C         141.1522  142.1269  166.1706 C.ar    1  UNL1        0.1658
     30 C         140.4840  141.4273  167.3169 C.ar    1  UNL1        0.0392
     31 C         141.0233  140.1189  167.8141 C.ar    1  UNL1        0.0033
     32 C         142.2308  139.5102  167.1650 C.ar    1  UNL1        0.0025
     33 C         142.8990  140.2098  166.0187 C.ar    1  UNL1        0.0328
     34 C         142.3597  141.5182  165.5215 C.ar    1  UNL1        0.1738
     35 F         143.0279  142.2179  164.3752 F       1  UNL1       -0.2010
@<TRIPOS>BOND
     1    23    24    3
     2    24    17    1
     3    17    18   ar
     4    18    19   ar
     5    19    20   ar
     6    20    14    1
     7    14    15    2
     8    14    16    2
     9    14    12    1
    10    12    11    1
    11    11    10    1
    12    10     1    1
    13     1     2    1
    14     2     3    1
    15     3     4    1
    16     4     5    1
    17     5    25    1
    18    25    26    1
    19    26    27    1
    20    27    28    1
    21    28    29    1
    22    29    30   ar
    23    30    31   ar
    24    31    32   ar
    25    32    33   ar
    26    33    34   ar
    27    34    35    1
    28     5     6    1
    29     6     7    1
    30     7     8    1
    31     7     9    1
    32    20    21   ar
    33    21    22   ar
    34    22    17   ar
    35     8     1    1
    36     9     3    1
    37    34    29   ar
    38    12    13    1
