@<TRIPOS>MOLECULE
*****
 37 40 0 0 0
SMALL
GASTEIGER

@<TRIPOS>ATOM
      1 C         142.8537  139.5501  164.9764 C.ar    1  UNL1        0.0835
      2 C         143.8190  138.5151  165.4732 C.ar    1  UNL1        0.1147
      3 N         143.8888  138.1960  166.9372 N.ar    1  UNL1       -0.2409
      4 C         142.9932  138.9119  167.9043 C.ar    1  UNL1        0.1002
      5 C         142.0278  139.9469  167.4075 C.ar    1  UNL1        0.0338
      6 C         141.9581  140.2660  165.9435 C.ar    1  UNL1        0.0645
      7 N         140.9927  141.3011  165.4466 N.pl3   1  UNL1       -0.3064
      8 C         141.4664  142.6974  165.1709 C.3     1  UNL1        0.0922
      9 C         140.5011  143.7324  164.6740 C.3     1  UNL1        0.0369
     10 C         139.0621  143.3712  164.4529 C.3     1  UNL1        0.0542
     11 N         138.0968  144.4062  163.9560 N.3     1  UNL1       -0.3221
     12 C         138.5885  141.9749  164.7286 C.3     1  UNL1        0.0369
     13 C         139.5538  140.9398  165.2255 C.3     1  UNL1        0.0922
     14 H         138.5860  145.2913  163.8232 H       1  UNL1        0.1188
     15 H         137.3495  144.5299  164.6391 H       1  UNL1        0.1188
     16 C         141.1323  140.6628  168.3747 C.ar    1  UNL1        0.0044
     17 C         141.4333  142.0785  168.7687 C.ar    1  UNL1        0.0115
     18 C         140.5377  142.7944  169.7359 C.ar    1  UNL1        0.0585
     19 CL        140.8387  144.2101  170.1299 Cl      1  UNL1       -0.0822
     20 C         139.3411  142.0946  170.3090 C.ar    1  UNL1        0.0228
     21 C         139.0401  140.6790  169.9149 C.ar    1  UNL1        0.0585
     22 CL        137.8435  139.9792  170.4881 Cl      1  UNL1       -0.0822
     23 C         139.9357  139.9631  168.9478 C.ar    1  UNL1        0.0115
     24 C         143.9025  140.6218  162.8546 C.2     1  UNL1        0.2525
     25 O         145.0908  141.0552  163.6610 O.2     1  UNL1       -0.2697
     26 N         142.7839  139.8693  163.5123 N.am    1  UNL1       -0.2781
     27 H         142.0040  139.5848  162.9831 H       1  UNL1        0.1553
     28 C         143.3389  143.2482  158.3088 C.3     1  UNL1        0.1536
     29 N         143.5737  142.1482  159.3011 N.ar    1  UNL1       -0.2447
     30 N         143.8772  140.7160  158.9745 N.ar    1  UNL1       -0.1675
     31 C         144.0372  139.9699  160.2659 C.ar    1  UNL1        0.1261
     32 C         143.8327  140.9410  161.3907 C.ar    1  UNL1        0.0957
     33 C         143.5462  142.2872  160.7944 C.ar    1  UNL1        0.1552
     34 C         143.2792  143.5507  161.5575 C.3     1  UNL1        0.4347
     35 F         143.0121  144.8142  162.3205 F       1  UNL1       -0.1644
     36 F         141.8070  143.3790  161.3266 F       1  UNL1       -0.1644
     37 F         144.7513  143.7225  161.7883 F       1  UNL1       -0.1644
@<TRIPOS>BOND
     1    28    29    1
     2    29    30   ar
     3    30    31   ar
     4    31    32   ar
     5    32    24    1
     6    24    25    2
     7    24    26   am
     8    26     1    1
     9     1     2   ar
    10     2     3   ar
    11     3     4   ar
    12     4     5   ar
    13     5    16    1
    14    16    17   ar
    15    17    18   ar
    16    18    19    1
    17    18    20   ar
    18    20    21   ar
    19    21    22    1
    20    21    23   ar
    21     5     6   ar
    22     6     7    1
    23     7     8    1
    24     8     9    1
    25     9    10    1
    26    10    11    1
    27    10    12    1
    28    12    13    1
    29    32    33   ar
    30    33    34    1
    31    34    35    1
    32    34    36    1
    33    34    37    1
    34    33    29   ar
    35     6     1   ar
    36    13     7    1
    37    23    16   ar
    38    26    27    1
    39    11    14    1
    40    11    15    1
@<TRIPOS>MOLECULE
*****
 37 40 0 0 0
SMALL
GASTEIGER

@<TRIPOS>ATOM
      1 C         142.6383  139.2120  164.9600 C.ar    1  UNL1        0.0835
      2 C         143.7256  138.3230  165.4867 C.ar    1  UNL1        0.1147
      3 N         143.9285  138.1822  166.9662 N.ar    1  UNL1       -0.2409
      4 C         143.0440  138.9304  167.9190 C.ar    1  UNL1        0.1002
      5 C         141.9567  139.8194  167.3924 C.ar    1  UNL1        0.0338
      6 C         141.7538  139.9602  165.9129 C.ar    1  UNL1        0.0645
      7 N         140.6664  140.8492  165.3862 N.pl3   1  UNL1       -0.3064
      8 C         139.2907  140.2967  165.1578 C.3     1  UNL1        0.0922
      9 C         138.2034  141.1857  164.6312 C.3     1  UNL1        0.0369
     10 C         138.4917  142.6272  164.3328 C.3     1  UNL1        0.0542
     11 N         137.4044  143.5161  163.8061 N.3     1  UNL1       -0.3221
     12 C         139.8675  143.1797  164.5612 C.3     1  UNL1        0.0369
     13 C         140.9548  142.2907  165.0879 C.3     1  UNL1        0.0922
     14 H         136.5420  142.9795  163.7127 H       1  UNL1        0.1188
     15 H         137.6770  143.8831  162.8943 H       1  UNL1        0.1188
     16 C         141.0722  140.5676  168.3453 C.ar    1  UNL1        0.0044
     17 C         141.3894  141.9890  168.7043 C.ar    1  UNL1        0.0115
     18 C         140.5050  142.7372  169.6571 C.ar    1  UNL1        0.0585
     19 CL        140.8222  144.1587  170.0161 Cl      1  UNL1       -0.0822
     20 C         139.3033  142.0640  170.2510 C.ar    1  UNL1        0.0228
     21 C         138.9861  140.6425  169.8920 C.ar    1  UNL1        0.0585
     22 CL        137.7844  139.9692  170.4859 Cl      1  UNL1       -0.0822
     23 C         139.8706  139.8944  168.9392 C.ar    1  UNL1        0.0115
     24 C         141.6982  138.2906  162.7201 C.2     1  UNL1        0.2525
     25 O         141.1639  137.0875  163.4393 O.2     1  UNL1       -0.2697
     26 N         142.4354  139.3529  163.4805 N.am    1  UNL1       -0.2781
     27 H         142.7860  140.1425  163.0085 H       1  UNL1        0.1553
     28 C         139.4568  139.1605  158.0190 C.3     1  UNL1        0.1536
     29 N         140.4650  138.8312  159.0797 N.ar    1  UNL1       -0.2447
     30 N         141.9010  138.4648  158.8480 N.ar    1  UNL1       -0.1675
     31 C         142.5377  138.2177  160.1834 C.ar    1  UNL1        0.1261
     32 C         141.4953  138.4314  161.2406 C.ar    1  UNL1        0.0957
     33 C         140.2143  138.8106  160.5585 C.ar    1  UNL1        0.1552
     34 C         138.9113  139.1155  161.2361 C.3     1  UNL1        0.4347
     35 F         137.6083  139.4205  161.9138 F       1  UNL1       -0.1644
     36 F         139.2191  140.5820  161.1680 F       1  UNL1       -0.1644
     37 F         138.6035  137.6491  161.3042 F       1  UNL1       -0.1644
@<TRIPOS>BOND
     1    28    29    1
     2    29    30   ar
     3    30    31   ar
     4    31    32   ar
     5    32    24    1
     6    24    25    2
     7    24    26   am
     8    26     1    1
     9     1     2   ar
    10     2     3   ar
    11     3     4   ar
    12     4     5   ar
    13     5    16    1
    14    16    17   ar
    15    17    18   ar
    16    18    19    1
    17    18    20   ar
    18    20    21   ar
    19    21    22    1
    20    21    23   ar
    21     5     6   ar
    22     6     7    1
    23     7     8    1
    24     8     9    1
    25     9    10    1
    26    10    11    1
    27    10    12    1
    28    12    13    1
    29    32    33   ar
    30    33    34    1
    31    34    35    1
    32    34    36    1
    33    34    37    1
    34    33    29   ar
    35     6     1   ar
    36    13     7    1
    37    23    16   ar
    38    26    27    1
    39    11    14    1
    40    11    15    1
@<TRIPOS>MOLECULE
*****
 37 40 0 0 0
SMALL
GASTEIGER

@<TRIPOS>ATOM
      1 C         142.6326  139.2685  164.8842 C.ar    1  UNL1        0.0835
      2 C         143.7156  138.3625  165.3902 C.ar    1  UNL1        0.1147
      3 N         143.9262  138.1967  166.8660 N.ar    1  UNL1       -0.2409
      4 C         143.0536  138.9370  167.8359 C.ar    1  UNL1        0.1002
      5 C         141.9706  139.8430  167.3300 C.ar    1  UNL1        0.0338
      6 C         141.7601  140.0088  165.8541 C.ar    1  UNL1        0.0645
      7 N         140.6769  140.9149  165.3481 N.pl3   1  UNL1       -0.3064
      8 C         139.2975  140.3753  165.1113 C.3     1  UNL1        0.0922
      9 C         138.2145  141.2813  164.6053 C.3     1  UNL1        0.0369
     10 C         138.5108  142.7269  164.3361 C.3     1  UNL1        0.0542
     11 N         137.4277  143.6329  163.8301 N.3     1  UNL1       -0.3221
     12 C         139.8902  143.2665  164.5730 C.3     1  UNL1        0.0369
     13 C         140.9733  142.3604  165.0790 C.3     1  UNL1        0.0922
     14 H         136.5619  143.1035  163.7274 H       1  UNL1        0.1188
     15 H         137.7007  144.0170  162.9255 H       1  UNL1        0.1188
     16 C         141.0981  140.5833  168.2999 C.ar    1  UNL1        0.0044
     17 C         139.8990  139.9079  168.8966 C.ar    1  UNL1        0.0115
     18 C         139.0265  140.6482  169.8665 C.ar    1  UNL1        0.0585
     19 CL        137.8274  139.9727  170.4633 Cl      1  UNL1       -0.0822
     20 C         139.3530  142.0638  170.2397 C.ar    1  UNL1        0.0228
     21 C         140.5520  142.7392  169.6429 C.ar    1  UNL1        0.0585
     22 CL        140.8786  144.1549  170.0161 Cl      1  UNL1       -0.0822
     23 C         141.4246  141.9989  168.6730 C.ar    1  UNL1        0.0115
     24 C         141.6664  138.3932  162.6369 C.2     1  UNL1        0.2525
     25 O         141.1213  137.1862  163.3414 O.2     1  UNL1       -0.2697
     26 N         142.4220  139.4343  163.4083 N.am    1  UNL1       -0.2781
     27 H         142.7797  140.2265  162.9460 H       1  UNL1        0.1553
     28 C         139.3926  139.3109  157.9606 C.3     1  UNL1        0.1536
     29 N         140.4106  138.9808  159.0116 N.ar    1  UNL1       -0.2447
     30 N         141.8528  138.6473  158.7684 N.ar    1  UNL1       -0.1675
     31 C         142.4987  138.3866  160.0969 C.ar    1  UNL1        0.1261
     32 C         141.4558  138.5589  161.1611 C.ar    1  UNL1        0.0957
     33 C         140.1653  138.9261  160.4904 C.ar    1  UNL1        0.1552
     34 C         138.8589  139.1921  161.1777 C.3     1  UNL1        0.4347
     35 F         137.5524  139.4580  161.8651 F       1  UNL1       -0.1644
     36 F         138.5480  137.7248  161.1545 F       1  UNL1       -0.1644
     37 F         139.1697  140.6593  161.2009 F       1  UNL1       -0.1644
@<TRIPOS>BOND
     1    28    29    1
     2    29    30   ar
     3    30    31   ar
     4    31    32   ar
     5    32    24    1
     6    24    25    2
     7    24    26   am
     8    26     1    1
     9     1     2   ar
    10     2     3   ar
    11     3     4   ar
    12     4     5   ar
    13     5    16    1
    14    16    17   ar
    15    17    18   ar
    16    18    19    1
    17    18    20   ar
    18    20    21   ar
    19    21    22    1
    20    21    23   ar
    21     5     6   ar
    22     6     7    1
    23     7     8    1
    24     8     9    1
    25     9    10    1
    26    10    11    1
    27    10    12    1
    28    12    13    1
    29    32    33   ar
    30    33    34    1
    31    34    35    1
    32    34    36    1
    33    34    37    1
    34    33    29   ar
    35     6     1   ar
    36    13     7    1
    37    23    16   ar
    38    26    27    1
    39    11    14    1
    40    11    15    1
@<TRIPOS>MOLECULE
*****
 37 40 0 0 0
SMALL
GASTEIGER

@<TRIPOS>ATOM
      1 C         139.2173  139.8337  165.1273 C.ar    1  UNL1        0.0835
      2 C         138.3366  138.7815  165.7331 C.ar    1  UNL1        0.1147
      3 N         138.2197  138.6688  167.2243 N.ar    1  UNL1       -0.2409
      4 C         138.9836  139.6083  168.1096 C.ar    1  UNL1        0.1002
      5 C         139.8644  140.6605  167.5037 C.ar    1  UNL1        0.0338
      6 C         139.9812  140.7732  166.0126 C.ar    1  UNL1        0.0645
      7 N         140.8620  141.8255  165.4067 N.pl3   1  UNL1       -0.3064
      8 C         140.3027  143.1809  165.0907 C.3     1  UNL1        0.0922
      9 C         141.1834  144.2332  164.4848 C.3     1  UNL1        0.0369
     10 C         142.6236  143.9299  164.1949 C.3     1  UNL1        0.0542
     11 N         143.5043  144.9822  163.5890 N.3     1  UNL1       -0.3221
     12 C         143.1829  142.5745  164.5108 C.3     1  UNL1        0.0369
     13 C         142.3021  141.5222  165.1167 C.3     1  UNL1        0.0922
     14 H         142.9638  145.8346  163.4420 H       1  UNL1        0.1188
     15 H         143.8650  144.6499  162.6946 H       1  UNL1        0.1188
     16 C         140.6283  141.6000  168.3891 C.ar    1  UNL1        0.0044
     17 C         139.9651  142.8361  168.9203 C.ar    1  UNL1        0.0115
     18 C         140.7290  143.7756  169.8056 C.ar    1  UNL1        0.0585
     19 CL        140.0658  145.0118  170.3368 Cl      1  UNL1       -0.0822
     20 C         142.1561  143.4790  170.1597 C.ar    1  UNL1        0.0228
     21 C         142.8193  142.2429  169.6285 C.ar    1  UNL1        0.0585
     22 CL        144.2464  141.9463  169.9826 Cl      1  UNL1       -0.0822
     23 C         142.0554  141.3034  168.7432 C.ar    1  UNL1        0.0115
     24 C         138.2582  140.6344  162.8493 C.2     1  UNL1        0.2525
     25 O         137.0653  141.2095  163.5538 O.2     1  UNL1       -0.2697
     26 N         139.3342  139.9465  163.6360 N.am    1  UNL1       -0.2781
     27 H         140.1172  139.5690  163.1737 H       1  UNL1        0.1553
     28 C         139.1127  142.5688  158.0111 C.3     1  UNL1        0.1536
     29 N         138.7678  141.6363  159.1342 N.ar    1  UNL1       -0.2447
     30 N         138.3418  140.2050  158.9927 N.ar    1  UNL1       -0.1675
     31 C         138.0991  139.6555  160.3671 C.ar    1  UNL1        0.1261
     32 C         138.3750  140.7471  161.3581 C.ar    1  UNL1        0.0957
     33 C         138.7883  141.9713  160.5962 C.ar    1  UNL1        0.1552
     34 C         139.1574  143.2977  161.1916 C.3     1  UNL1        0.4347
     35 F         139.5264  144.6240  161.7871 F       1  UNL1       -0.1644
     36 F         140.5932  143.0618  160.8271 F       1  UNL1       -0.1644
     37 F         137.7216  143.5335  161.5561 F       1  UNL1       -0.1644
@<TRIPOS>BOND
     1    28    29    1
     2    29    30   ar
     3    30    31   ar
     4    31    32   ar
     5    32    24    1
     6    24    25    2
     7    24    26   am
     8    26     1    1
     9     1     2   ar
    10     2     3   ar
    11     3     4   ar
    12     4     5   ar
    13     5    16    1
    14    16    17   ar
    15    17    18   ar
    16    18    19    1
    17    18    20   ar
    18    20    21   ar
    19    21    22    1
    20    21    23   ar
    21     5     6   ar
    22     6     7    1
    23     7     8    1
    24     8     9    1
    25     9    10    1
    26    10    11    1
    27    10    12    1
    28    12    13    1
    29    32    33   ar
    30    33    34    1
    31    34    35    1
    32    34    36    1
    33    34    37    1
    34    33    29   ar
    35     6     1   ar
    36    13     7    1
    37    23    16   ar
    38    26    27    1
    39    11    14    1
    40    11    15    1
@<TRIPOS>MOLECULE
*****
 37 40 0 0 0
SMALL
GASTEIGER

@<TRIPOS>ATOM
      1 C         139.1905  139.4533  164.8184 C.ar    1  UNL1        0.0835
      2 C         138.0082  138.6131  165.2006 C.ar    1  UNL1        0.1147
      3 N         137.6171  138.4806  166.6426 N.ar    1  UNL1       -0.2409
      4 C         138.4083  139.1882  167.7024 C.ar    1  UNL1        0.1002
      5 C         139.5906  140.0284  167.3203 C.ar    1  UNL1        0.0338
      6 C         139.9817  140.1610  165.8783 C.ar    1  UNL1        0.0645
      7 N         141.1641  141.0012  165.4960 N.pl3   1  UNL1       -0.3064
      8 C         140.9730  142.4441  165.1332 C.3     1  UNL1        0.0922
      9 C         142.1553  143.2843  164.7510 C.3     1  UNL1        0.0369
     10 C         143.5288  142.6817  164.7315 C.3     1  UNL1        0.0542
     11 N         144.7111  143.5219  164.3493 N.3     1  UNL1       -0.3221
     12 C         143.7200  141.2388  165.0943 C.3     1  UNL1        0.0369
     13 C         142.5376  140.3986  165.4766 C.3     1  UNL1        0.0922
     14 H         144.3999  144.4695  164.1355 H       1  UNL1        0.1188
     15 H         145.1632  143.1192  163.5284 H       1  UNL1        0.1188
     16 C         140.3819  140.7360  168.3801 C.ar    1  UNL1        0.0044
     17 C         141.4608  140.0059  169.1235 C.ar    1  UNL1        0.0115
     18 C         142.2521  140.7135  170.1833 C.ar    1  UNL1        0.0585
     19 CL        143.3311  139.9834  170.9268 Cl      1  UNL1       -0.0822
     20 C         141.9643  142.1513  170.4997 C.ar    1  UNL1        0.0228
     21 C         140.8854  142.8814  169.7563 C.ar    1  UNL1        0.0585
     22 CL        140.5976  144.3192  170.0726 Cl      1  UNL1       -0.0822
     23 C         140.0941  142.1737  168.6964 C.ar    1  UNL1        0.0115
     24 C         140.3977  138.5128  162.7189 C.2     1  UNL1        0.2525
     25 O         140.8226  137.3069  163.5035 O.2     1  UNL1       -0.2697
     26 N         139.5816  139.5860  163.3764 N.am    1  UNL1       -0.2781
     27 H         139.3028  140.3774  162.8614 H       1  UNL1        0.1553
     28 C         143.2410  139.2891  158.3378 C.3     1  UNL1        0.1536
     29 N         142.0958  139.0022  159.2631 N.ar    1  UNL1       -0.2447
     30 N         140.6858  138.6964  158.8526 N.ar    1  UNL1       -0.1675
     31 C         139.8781  138.4759  160.0972 C.ar    1  UNL1        0.1261
     32 C         140.7889  138.6453  161.2769 C.ar    1  UNL1        0.0957
     33 C         142.1595  138.9706  160.7614 C.ar    1  UNL1        0.1552
     34 C         143.3795  139.2204  161.5975 C.3     1  UNL1        0.4347
     35 F         144.5996  139.4702  162.4335 F       1  UNL1       -0.1644
     36 F         142.9179  140.6248  161.8515 F       1  UNL1       -0.1644
     37 F         143.8412  137.8160  161.3435 F       1  UNL1       -0.1644
@<TRIPOS>BOND
     1    28    29    1
     2    29    30   ar
     3    30    31   ar
     4    31    32   ar
     5    32    24    1
     6    24    25    2
     7    24    26   am
     8    26     1    1
     9     1     2   ar
    10     2     3   ar
    11     3     4   ar
    12     4     5   ar
    13     5    16    1
    14    16    17   ar
    15    17    18   ar
    16    18    19    1
    17    18    20   ar
    18    20    21   ar
    19    21    22    1
    20    21    23   ar
    21     5     6   ar
    22     6     7    1
    23     7     8    1
    24     8     9    1
    25     9    10    1
    26    10    11    1
    27    10    12    1
    28    12    13    1
    29    32    33   ar
    30    33    34    1
    31    34    35    1
    32    34    36    1
    33    34    37    1
    34    33    29   ar
    35     6     1   ar
    36    13     7    1
    37    23    16   ar
    38    26    27    1
    39    11    14    1
    40    11    15    1
@<TRIPOS>MOLECULE
*****
 37 40 0 0 0
SMALL
GASTEIGER

@<TRIPOS>ATOM
      1 C         139.2322  139.4909  164.7724 C.ar    1  UNL1        0.0835
      2 C         138.0634  138.6248  165.1383 C.ar    1  UNL1        0.1147
      3 N         137.6653  138.4707  166.5762 N.ar    1  UNL1       -0.2409
      4 C         138.4359  139.1827  167.6483 C.ar    1  UNL1        0.1002
      5 C         139.6047  140.0488  167.2824 C.ar    1  UNL1        0.0338
      6 C         140.0028  140.2028  165.8444 C.ar    1  UNL1        0.0645
      7 N         141.1716  141.0689  165.4785 N.pl3   1  UNL1       -0.3064
      8 C         140.9517  142.5017  165.0926 C.3     1  UNL1        0.0922
      9 C         142.1204  143.3677  164.7267 C.3     1  UNL1        0.0369
     10 C         143.5091  142.8011  164.7465 C.3     1  UNL1        0.0542
     11 N         144.6779  143.6671  164.3806 N.3     1  UNL1       -0.3221
     12 C         143.7291  141.3683  165.1324 C.3     1  UNL1        0.0369
     13 C         142.5603  140.5023  165.4984 C.3     1  UNL1        0.0922
     14 H         144.3473  144.6035  164.1475 H       1  UNL1        0.1188
     15 H         145.1592  143.2663  163.5756 H       1  UNL1        0.1188
     16 C         140.3753  140.7607  168.3544 C.ar    1  UNL1        0.0044
     17 C         140.0713  142.1953  168.6696 C.ar    1  UNL1        0.0115
     18 C         140.8419  142.9073  169.7416 C.ar    1  UNL1        0.0585
     19 CL        140.5379  144.3420  170.0568 Cl      1  UNL1       -0.0822
     20 C         141.9166  142.1846  170.4985 C.ar    1  UNL1        0.0228
     21 C         142.2206  140.7500  170.1833 C.ar    1  UNL1        0.0585
     22 CL        143.2952  140.0273  170.9402 Cl      1  UNL1       -0.0822
     23 C         141.4499  140.0380  169.1113 C.ar    1  UNL1        0.0115
     24 C         140.5316  138.6319  162.6930 C.2     1  UNL1        0.2525
     25 O         141.0347  137.4646  163.4897 O.2     1  UNL1       -0.2697
     26 N         139.6304  139.6450  163.3344 N.am    1  UNL1       -0.2781
     27 H         139.3002  140.4111  162.8116 H       1  UNL1        0.1553
     28 C         143.3779  139.5471  158.3408 C.3     1  UNL1        0.1536
     29 N         142.2381  139.2066  159.2546 N.ar    1  UNL1       -0.2447
     30 N         140.8470  138.8395  158.8301 N.ar    1  UNL1       -0.1675
     31 C         140.0385  138.5795  160.0665 C.ar    1  UNL1        0.1261
     32 C         140.9298  138.7860  161.2551 C.ar    1  UNL1        0.0957
     33 C         142.2892  139.1735  160.7534 C.ar    1  UNL1        0.1552
     34 C         143.4891  139.4751  161.6014 C.3     1  UNL1        0.4347
     35 F         144.6891  139.7766  162.4495 F       1  UNL1       -0.1644
     36 F         144.0213  138.0975  161.3384 F       1  UNL1       -0.1644
     37 F         142.9570  140.8526  161.8645 F       1  UNL1       -0.1644
@<TRIPOS>BOND
     1    28    29    1
     2    29    30   ar
     3    30    31   ar
     4    31    32   ar
     5    32    24    1
     6    24    25    2
     7    24    26   am
     8    26     1    1
     9     1     2   ar
    10     2     3   ar
    11     3     4   ar
    12     4     5   ar
    13     5    16    1
    14    16    17   ar
    15    17    18   ar
    16    18    19    1
    17    18    20   ar
    18    20    21   ar
    19    21    22    1
    20    21    23   ar
    21     5     6   ar
    22     6     7    1
    23     7     8    1
    24     8     9    1
    25     9    10    1
    26    10    11    1
    27    10    12    1
    28    12    13    1
    29    32    33   ar
    30    33    34    1
    31    34    35    1
    32    34    36    1
    33    34    37    1
    34    33    29   ar
    35     6     1   ar
    36    13     7    1
    37    23    16   ar
    38    26    27    1
    39    11    14    1
    40    11    15    1
@<TRIPOS>MOLECULE
*****
 37 40 0 0 0
SMALL
GASTEIGER

@<TRIPOS>ATOM
      1 C         141.9329  142.7923  164.4406 C.ar    1  UNL1        0.0835
      2 C         143.1366  143.4794  165.0140 C.ar    1  UNL1        0.1147
      3 N         144.1529  144.0983  164.1008 N.ar    1  UNL1       -0.2409
      4 C         143.9655  144.0301  162.6141 C.ar    1  UNL1        0.1002
      5 C         142.7618  143.3430  162.0407 C.ar    1  UNL1        0.0338
      6 C         141.7455  142.7241  162.9539 C.ar    1  UNL1        0.0645
      7 N         140.5417  142.0369  162.3804 N.pl3   1  UNL1       -0.3064
      8 C         140.6517  140.6290  161.8749 C.3     1  UNL1        0.0922
      9 C         139.4480  139.9418  161.3015 C.3     1  UNL1        0.0369
     10 C         138.1342  140.6626  161.2335 C.3     1  UNL1        0.0542
     11 N         136.9305  139.9754  160.6601 N.3     1  UNL1       -0.3221
     12 C         138.0242  142.0705  161.7391 C.3     1  UNL1        0.0369
     13 C         139.2280  142.7577  162.3125 C.3     1  UNL1        0.0922
     14 H         137.1847  139.0317  160.3682 H       1  UNL1        0.1188
     15 H         136.5908  140.5006  159.8545 H       1  UNL1        0.1188
     16 C         142.5744  143.2748  160.5540 C.ar    1  UNL1        0.0044
     17 C         141.6795  144.2617  159.8648 C.ar    1  UNL1        0.0115
     18 C         141.4921  144.1934  158.3781 C.ar    1  UNL1        0.0585
     19 CL        140.5971  145.1804  157.6889 Cl      1  UNL1       -0.0822
     20 C         142.1996  143.1383  157.5806 C.ar    1  UNL1        0.0228
     21 C         143.0946  142.1514  158.2698 C.ar    1  UNL1        0.0585
     22 CL        143.8022  141.0962  157.4723 Cl      1  UNL1       -0.0822
     23 C         143.2820  142.2197  159.7565 C.ar    1  UNL1        0.0115
     24 C         140.9757  140.7055  165.6568 C.2     1  UNL1        0.2525
     25 O         142.0514  139.8565  165.0465 O.2     1  UNL1       -0.2697
     26 N         140.9165  142.1734  165.3538 N.am    1  UNL1       -0.2781
     27 H         140.2105  142.7306  165.7543 H       1  UNL1        0.1553
     28 C         136.9813  137.7642  167.4663 C.3     1  UNL1        0.1536
     29 N         138.1234  138.7345  167.4017 N.ar    1  UNL1       -0.2447
     30 N         138.6675  139.5335  168.5487 N.ar    1  UNL1       -0.1675
     31 C         139.8022  140.3690  168.0347 C.ar    1  UNL1        0.1261
     32 C         139.9594  140.0865  166.5700 C.ar    1  UNL1        0.0957
     33 C         138.9218  139.0764  166.1788 C.ar    1  UNL1        0.1552
     34 C         138.7184  138.5078  164.8057 C.3     1  UNL1        0.4347
     35 F         138.5150  137.9393  163.4326 F       1  UNL1       -0.1644
     36 F         137.9686  139.7436  164.4050 F       1  UNL1       -0.1644
     37 F         139.4682  137.2720  165.2063 F       1  UNL1       -0.1644
@<TRIPOS>BOND
     1    28    29    1
     2    29    30   ar
     3    30    31   ar
     4    31    32   ar
     5    32    24    1
     6    24    25    2
     7    24    26   am
     8    26     1    1
     9     1     2   ar
    10     2     3   ar
    11     3     4   ar
    12     4     5   ar
    13     5    16    1
    14    16    17   ar
    15    17    18   ar
    16    18    19    1
    17    18    20   ar
    18    20    21   ar
    19    21    22    1
    20    21    23   ar
    21     5     6   ar
    22     6     7    1
    23     7     8    1
    24     8     9    1
    25     9    10    1
    26    10    11    1
    27    10    12    1
    28    12    13    1
    29    32    33   ar
    30    33    34    1
    31    34    35    1
    32    34    36    1
    33    34    37    1
    34    33    29   ar
    35     6     1   ar
    36    13     7    1
    37    23    16   ar
    38    26    27    1
    39    11    14    1
    40    11    15    1
@<TRIPOS>MOLECULE
*****
 37 40 0 0 0
SMALL
GASTEIGER

@<TRIPOS>ATOM
      1 C         139.6590  139.3108  164.4978 C.ar    1  UNL1        0.0835
      2 C         138.3609  138.6096  164.7684 C.ar    1  UNL1        0.1147
      3 N         137.7945  138.5898  166.1571 N.ar    1  UNL1       -0.2409
      4 C         138.5261  139.2714  167.2753 C.ar    1  UNL1        0.1002
      5 C         139.8241  139.9726  167.0047 C.ar    1  UNL1        0.0338
      6 C         140.3906  139.9923  165.6159 C.ar    1  UNL1        0.0645
      7 N         141.6887  140.6936  165.3453 N.pl3   1  UNL1       -0.3064
      8 C         141.7096  142.1789  165.1374 C.3     1  UNL1        0.0922
      9 C         143.0076  142.8802  164.8668 C.3     1  UNL1        0.0369
     10 C         144.2849  142.0961  164.8040 C.3     1  UNL1        0.0542
     11 N         145.5829  142.7973  164.5333 N.3     1  UNL1       -0.3221
     12 C         144.2640  140.6107  165.0118 C.3     1  UNL1        0.0369
     13 C         142.9659  139.9094  165.2825 C.3     1  UNL1        0.0922
     14 H         145.4121  143.7963  164.4183 H       1  UNL1        0.1188
     15 H         146.0001  142.4234  163.6810 H       1  UNL1        0.1188
     16 C         140.5557  140.6541  168.1228 C.ar    1  UNL1        0.0044
     17 C         140.2396  142.0794  168.4671 C.ar    1  UNL1        0.0115
     18 C         140.9712  142.7609  169.5852 C.ar    1  UNL1        0.0585
     19 CL        140.6550  144.1863  169.9295 Cl      1  UNL1       -0.0822
     20 C         142.0189  142.0172  170.3592 C.ar    1  UNL1        0.0228
     21 C         142.3351  140.5919  170.0149 C.ar    1  UNL1        0.0585
     22 CL        143.3829  139.8480  170.7888 Cl      1  UNL1       -0.0822
     23 C         141.6035  139.9103  168.8968 C.ar    1  UNL1        0.0115
     24 C         141.0191  138.1612  162.6060 C.2     1  UNL1        0.2525
     25 O         141.2462  136.9722  163.4919 O.2     1  UNL1       -0.2697
     26 N         140.2255  139.3305  163.1089 N.am    1  UNL1       -0.2781
     27 H         140.0764  140.1109  162.5275 H       1  UNL1        0.1553
     28 C         141.4952  138.7907  157.3851 C.3     1  UNL1        0.1536
     29 N         141.8044  138.4703  158.8175 N.ar    1  UNL1       -0.2447
     30 N         143.1104  137.9521  159.3429 N.ar    1  UNL1       -0.1675
     31 C         142.9752  137.7733  160.8261 C.ar    1  UNL1        0.1261
     32 C         141.5856  138.1809  161.2173 C.ar    1  UNL1        0.0957
     33 C         140.8621  138.6117  159.9759 C.ar    1  UNL1        0.1552
     34 C         139.4450  139.0983  159.9053 C.3     1  UNL1        0.4347
     35 F         138.0279  139.5850  159.8348 F       1  UNL1       -0.1644
     36 F         139.9368  140.5017  159.7086 F       1  UNL1       -0.1644
     37 F         138.9533  137.6950  160.1021 F       1  UNL1       -0.1644
@<TRIPOS>BOND
     1    28    29    1
     2    29    30   ar
     3    30    31   ar
     4    31    32   ar
     5    32    24    1
     6    24    25    2
     7    24    26   am
     8    26     1    1
     9     1     2   ar
    10     2     3   ar
    11     3     4   ar
    12     4     5   ar
    13     5    16    1
    14    16    17   ar
    15    17    18   ar
    16    18    19    1
    17    18    20   ar
    18    20    21   ar
    19    21    22    1
    20    21    23   ar
    21     5     6   ar
    22     6     7    1
    23     7     8    1
    24     8     9    1
    25     9    10    1
    26    10    11    1
    27    10    12    1
    28    12    13    1
    29    32    33   ar
    30    33    34    1
    31    34    35    1
    32    34    36    1
    33    34    37    1
    34    33    29   ar
    35     6     1   ar
    36    13     7    1
    37    23    16   ar
    38    26    27    1
    39    11    14    1
    40    11    15    1
@<TRIPOS>MOLECULE
*****
 37 40 0 0 0
SMALL
GASTEIGER

@<TRIPOS>ATOM
      1 C         139.3970  141.6167  163.9359 C.ar    1  UNL1        0.0835
      2 C         137.9041  141.6117  163.7908 C.ar    1  UNL1        0.1147
      3 N         137.2818  141.7726  162.4355 N.ar    1  UNL1       -0.2409
      4 C         138.1524  141.9385  161.2254 C.ar    1  UNL1        0.1002
      5 C         139.6453  141.9435  161.3704 C.ar    1  UNL1        0.0338
      6 C         140.2676  141.7826  162.7257 C.ar    1  UNL1        0.0645
      7 N         141.7607  141.7876  162.8708 N.pl3   1  UNL1       -0.3064
      8 C         142.4855  143.0768  163.1209 C.3     1  UNL1        0.0922
      9 C         143.9785  143.0819  163.2660 C.3     1  UNL1        0.0369
     10 C         144.7466  141.7977  163.1611 C.3     1  UNL1        0.0542
     11 N         146.2395  141.8027  163.3063 N.3     1  UNL1       -0.3221
     12 C         144.0217  140.5085  162.9111 C.3     1  UNL1        0.0369
     13 C         142.5287  140.5035  162.7659 C.3     1  UNL1        0.0922
     14 H         146.5619  142.7564  163.4705 H       1  UNL1        0.1188
     15 H         146.6653  141.4422  162.4524 H       1  UNL1        0.1188
     16 C         140.5159  142.1094  160.1603 C.ar    1  UNL1        0.0044
     17 C         140.8972  143.4828  159.6932 C.ar    1  UNL1        0.0115
     18 C         141.7678  143.6487  158.4830 C.ar    1  UNL1        0.0585
     19 CL        142.1490  145.0223  158.0159 Cl      1  UNL1       -0.0822
     20 C         142.2571  142.4411  157.7399 C.ar    1  UNL1        0.0228
     21 C         141.8759  141.0677  158.2070 C.ar    1  UNL1        0.0585
     22 CL        142.3652  139.8600  157.4639 Cl      1  UNL1       -0.0822
     23 C         141.0053  140.9018  159.4172 C.ar    1  UNL1        0.0115
     24 C         140.1602  142.6428  166.1975 C.2     1  UNL1        0.2525
     25 O         139.6785  143.9906  165.7485 O.2     1  UNL1       -0.2697
     26 N         140.0195  141.4559  165.2912 N.am    1  UNL1       -0.2781
     27 H         140.3356  140.5713  165.5858 H       1  UNL1        0.1553
     28 C         143.2824  141.0024  170.1271 C.3     1  UNL1        0.1536
     29 N         142.2177  141.7279  169.3590 N.ar    1  UNL1       -0.2447
     30 N         141.2628  142.7410  169.9177 N.ar    1  UNL1       -0.1675
     31 C         140.3759  143.2070  168.8013 C.ar    1  UNL1        0.1261
     32 C         140.7825  142.4820  167.5528 C.ar    1  UNL1        0.0957
     33 C         141.9208  141.5679  167.8974 C.ar    1  UNL1        0.1552
     34 C         142.6366  140.6541  166.9473 C.3     1  UNL1        0.4347
     35 F         143.3523  139.7403  165.9972 F       1  UNL1       -0.1644
     36 F         141.8558  139.4891  167.4795 F       1  UNL1       -0.1644
     37 F         143.4174  141.8190  166.4152 F       1  UNL1       -0.1644
@<TRIPOS>BOND
     1    28    29    1
     2    29    30   ar
     3    30    31   ar
     4    31    32   ar
     5    32    24    1
     6    24    25    2
     7    24    26   am
     8    26     1    1
     9     1     2   ar
    10     2     3   ar
    11     3     4   ar
    12     4     5   ar
    13     5    16    1
    14    16    17   ar
    15    17    18   ar
    16    18    19    1
    17    18    20   ar
    18    20    21   ar
    19    21    22    1
    20    21    23   ar
    21     5     6   ar
    22     6     7    1
    23     7     8    1
    24     8     9    1
    25     9    10    1
    26    10    11    1
    27    10    12    1
    28    12    13    1
    29    32    33   ar
    30    33    34    1
    31    34    35    1
    32    34    36    1
    33    34    37    1
    34    33    29   ar
    35     6     1   ar
    36    13     7    1
    37    23    16   ar
    38    26    27    1
    39    11    14    1
    40    11    15    1
