@<TRIPOS>MOLECULE
*****
 22 25 0 0 0
SMALL
GASTEIGER

@<TRIPOS>ATOM
      1 N         139.3246  140.1422  166.8340 N.3     1  UNL1       -0.2733
      2 C         140.4130  140.0113  167.8579 C.3     1  UNL1        0.0729
      3 C         141.5947  140.9345  167.8184 C.3     1  UNL1        0.0271
      4 C         141.6879  141.9884  166.7552 C.3     1  UNL1        0.0077
      5 C         140.5995  142.1193  165.7314 C.3     1  UNL1        0.0340
      6 C         140.6927  143.1733  164.6681 C.2     1  UNL1       -0.0342
      7 C         141.8744  144.0964  164.6288 C.2     1  UNL1       -0.0078
      8 C         141.9676  145.1503  163.5655 C.2     1  UNL1        0.0006
      9 C         140.8791  145.2812  162.5417 C.2     1  UNL1        0.0153
     10 C         139.6975  144.3581  162.5811 C.2     1  UNL1        0.0662
     11 N         138.4349  144.1298  161.8041 N.2     1  UNL1       -0.2482
     12 C         137.6989  142.9883  162.4407 C.2     1  UNL1        0.0907
     13 C         138.4226  142.3810  163.6838 C.2     1  UNL1       -0.0148
     14 C         139.6043  143.3042  163.6443 C.3     1  UNL1        0.0783
     15 C         138.3294  141.3270  164.7470 C.3     1  UNL1        0.0405
     16 C         139.4178  141.1962  165.7708 C.3     1  UNL1        0.0653
     17 C         138.1430  139.2191  166.8734 C.3     1  UNL1        0.0721
     18 C         139.1141  137.6720  165.0258 C.3     1  UNL1        0.0015
     19 C         138.2191  137.8748  166.2124 C.3     1  UNL1        0.0173
     20 C         142.6831  140.8036  168.8422 C.3     1  UNL1        0.0590
     21 S         143.3054  142.0323  169.4366 S.3     1  UNL1       -0.1393
     22 C         142.4761  142.9657  170.2680 C.3     1  UNL1        0.0692
@<TRIPOS>BOND
     1    18    19    1
     2    19    17    1
     3    17     1    1
     4     1     2    1
     5     2     3    1
     6     3    20    1
     7    20    21    1
     8    21    22    1
     9     3     4    1
    10     5     4    1
    11     5     6    1
    12     6     7    2
    13     7     8    1
    14     8     9    2
    15     9    10    1
    16    10    11    2
    17    11    12    1
    18    12    13    2
    19    13    14    1
    20    13    15    1
    21    16    15    1
    22    16     1    1
    23    16     5    1
    24    14     6    1
    25    14    10    1
@<TRIPOS>MOLECULE
*****
 22 25 0 0 0
SMALL
GASTEIGER

@<TRIPOS>ATOM
      1 N         141.1216  140.1031  164.4434 N.3     1  UNL1       -0.2733
      2 C         142.2865  140.5272  163.5990 C.3     1  UNL1        0.0729
      3 C         143.4183  141.2958  164.2142 C.3     1  UNL1        0.0271
      4 C         143.3851  141.6402  165.6737 C.3     1  UNL1        0.0077
      5 C         142.2201  141.2161  166.5181 C.3     1  UNL1        0.0340
      6 C         142.1870  141.5606  167.9777 C.2     1  UNL1       -0.0342
      7 C         143.3187  142.3292  168.5928 C.2     1  UNL1       -0.0078
      8 C         143.2855  142.6736  170.0523 C.2     1  UNL1        0.0006
      9 C         142.1206  142.2495  170.8967 C.2     1  UNL1        0.0153
     10 C         140.9888  141.4810  170.2816 C.2     1  UNL1        0.0662
     11 N         139.6849  140.8791  170.7145 N.2     1  UNL1       -0.2482
     12 C         139.0506  140.2364  169.5167 C.2     1  UNL1        0.0907
     13 C         139.8902  140.3679  168.2069 C.2     1  UNL1       -0.0148
     14 C         141.0220  141.1365  168.8221 C.3     1  UNL1        0.0783
     15 C         139.9234  140.0235  166.7474 C.3     1  UNL1        0.0405
     16 C         141.0884  140.4476  165.9030 C.3     1  UNL1        0.0653
     17 C         139.9898  139.3345  163.8283 C.3     1  UNL1        0.0721
     18 C         141.1534  137.0928  164.4372 C.3     1  UNL1        0.0015
     19 C         140.0702  137.8408  163.7179 C.3     1  UNL1        0.0173
     20 C         144.5833  141.7199  163.3698 C.3     1  UNL1        0.0590
     21 S         144.4315  142.8509  162.3962 S.3     1  UNL1       -0.1393
     22 C         144.0823  144.2236  162.8898 C.3     1  UNL1        0.0692
@<TRIPOS>BOND
     1    18    19    1
     2    19    17    1
     3    17     1    1
     4     1     2    1
     5     2     3    1
     6     3    20    1
     7    20    21    1
     8    21    22    1
     9     3     4    1
    10     5     4    1
    11     5     6    1
    12     6     7    2
    13     7     8    1
    14     8     9    2
    15     9    10    1
    16    10    11    2
    17    11    12    1
    18    12    13    2
    19    13    14    1
    20    13    15    1
    21    16    15    1
    22    16     1    1
    23    16     5    1
    24    14     6    1
    25    14    10    1
@<TRIPOS>MOLECULE
*****
 22 25 0 0 0
SMALL
GASTEIGER

@<TRIPOS>ATOM
      1 N         140.7795  141.8010  164.4377 N.3     1  UNL1       -0.2733
      2 C         141.2749  140.6715  163.5839 C.3     1  UNL1        0.0729
      3 C         141.9542  139.4940  164.2181 C.3     1  UNL1        0.0271
      4 C         142.1380  139.4460  165.7060 C.3     1  UNL1        0.0077
      5 C         141.6427  140.5754  166.5597 C.3     1  UNL1        0.0340
      6 C         141.8266  140.5274  168.0477 C.2     1  UNL1       -0.0342
      7 C         142.5059  139.3499  168.6818 C.2     1  UNL1       -0.0078
      8 C         142.6897  139.3019  170.1697 C.2     1  UNL1        0.0006
      9 C         142.1944  140.4314  171.0234 C.2     1  UNL1        0.0153
     10 C         141.5152  141.6088  170.3893 C.2     1  UNL1        0.0662
     11 N         140.8901  142.9017  170.8228 N.2     1  UNL1       -0.2482
     12 C         140.3917  143.6092  169.5976 C.2     1  UNL1        0.0907
     13 C         140.6520  142.8344  168.2673 C.2     1  UNL1       -0.0148
     14 C         141.3313  141.6569  168.9015 C.3     1  UNL1        0.0783
     15 C         140.4681  142.8824  166.7794 C.3     1  UNL1        0.0405
     16 C         140.9635  141.7529  165.9256 C.3     1  UNL1        0.0653
     17 C         140.1003  142.9785  163.8036 C.3     1  UNL1        0.0721
     18 C         137.8143  144.0265  164.4564 C.3     1  UNL1        0.0015
     19 C         138.6051  143.0092  163.6883 C.3     1  UNL1        0.0173
     20 C         142.4495  138.3645  163.3643 C.3     1  UNL1        0.0590
     21 S         143.6042  138.5801  162.4314 S.3     1  UNL1       -0.1393
     22 C         143.6467  137.8659  161.1130 C.3     1  UNL1        0.0692
@<TRIPOS>BOND
     1    18    19    1
     2    19    17    1
     3    17     1    1
     4     1     2    1
     5     2     3    1
     6     3    20    1
     7    20    21    1
     8    21    22    1
     9     3     4    1
    10     5     4    1
    11     5     6    1
    12     6     7    2
    13     7     8    1
    14     8     9    2
    15     9    10    1
    16    10    11    2
    17    11    12    1
    18    12    13    2
    19    13    14    1
    20    13    15    1
    21    16    15    1
    22    16     1    1
    23    16     5    1
    24    14     6    1
    25    14    10    1
@<TRIPOS>MOLECULE
*****
 22 25 0 0 0
SMALL
GASTEIGER

@<TRIPOS>ATOM
      1 N         142.0985  140.3996  164.3787 N.3     1  UNL1       -0.2733
      2 C         141.5656  141.4344  163.4326 C.3     1  UNL1        0.0729
      3 C         140.8744  142.6539  163.9667 C.3     1  UNL1        0.0271
      4 C         140.7160  142.8384  165.4468 C.3     1  UNL1        0.0077
      5 C         141.2489  141.8035  166.3929 C.3     1  UNL1        0.0340
      6 C         141.0905  141.9881  167.8731 C.2     1  UNL1       -0.0342
      7 C         140.3992  143.2075  168.4072 C.2     1  UNL1       -0.0078
      8 C         140.2408  143.3920  169.8873 C.2     1  UNL1        0.0006
      9 C         140.7737  142.3572  170.8334 C.2     1  UNL1        0.0153
     10 C         141.4650  141.1378  170.2994 C.2     1  UNL1        0.0662
     11 N         142.1234  139.9031  170.8398 N.2     1  UNL1       -0.2482
     12 C         142.6139  139.0926  169.6769 C.2     1  UNL1        0.0907
     13 C         142.3147  139.7338  168.2851 C.2     1  UNL1       -0.0148
     14 C         141.6234  140.9533  168.8192 C.3     1  UNL1        0.0783
     15 C         142.4730  139.5493  166.8050 C.3     1  UNL1        0.0405
     16 C         141.9401  140.5842  165.8589 C.3     1  UNL1        0.0653
     17 C         142.7898  139.1802  163.8447 C.3     1  UNL1        0.0721
     18 C         145.1559  140.2109  164.1436 C.3     1  UNL1        0.0015
     19 C         144.2356  139.2495  163.4515 C.3     1  UNL1        0.0173
     20 C         140.3415  143.6887  163.0206 C.3     1  UNL1        0.0590
     21 S         139.2365  144.6050  163.4561 S.3     1  UNL1       -0.1393
     22 C         137.8111  144.2674  163.1330 C.3     1  UNL1        0.0692
@<TRIPOS>BOND
     1    18    19    1
     2    19    17    1
     3    17     1    1
     4     1     2    1
     5     2     3    1
     6     3    20    1
     7    20    21    1
     8    21    22    1
     9     3     4    1
    10     5     4    1
    11     5     6    1
    12     6     7    2
    13     7     8    1
    14     8     9    2
    15     9    10    1
    16    10    11    2
    17    11    12    1
    18    12    13    2
    19    13    14    1
    20    13    15    1
    21    16    15    1
    22    16     1    1
    23    16     5    1
    24    14     6    1
    25    14    10    1
@<TRIPOS>MOLECULE
*****
 22 25 0 0 0
SMALL
GASTEIGER

@<TRIPOS>ATOM
      1 N         140.5053  142.1189  164.5613 N.3     1  UNL1       -0.2733
      2 C         140.9612  141.0525  163.6101 C.3     1  UNL1        0.0729
      3 C         141.6743  139.8392  164.1294 C.3     1  UNL1        0.0271
      4 C         141.9313  139.6924  165.5998 C.3     1  UNL1        0.0077
      5 C         141.4753  140.7588  166.5511 C.3     1  UNL1        0.0340
      6 C         141.7323  140.6119  168.0216 C.2     1  UNL1       -0.0342
      7 C         142.4453  139.3987  168.5409 C.2     1  UNL1       -0.0078
      8 C         142.7023  139.2518  170.0113 C.2     1  UNL1        0.0006
      9 C         142.2463  140.3182  170.9626 C.2     1  UNL1        0.0153
     10 C         141.5333  141.5315  170.4433 C.2     1  UNL1        0.0662
     11 N         140.9266  142.7883  170.9931 N.2     1  UNL1       -0.2482
     12 C         140.3666  143.5736  169.8443 C.2     1  UNL1        0.0907
     13 C         140.5633  142.8916  168.4536 C.2     1  UNL1       -0.0148
     14 C         141.2763  141.6783  168.9729 C.3     1  UNL1        0.0783
     15 C         140.3063  143.0384  166.9831 C.3     1  UNL1        0.0405
     16 C         140.7623  141.9720  166.0318 C.3     1  UNL1        0.0653
     17 C         139.7923  143.3322  164.0421 C.3     1  UNL1        0.0721
     18 C         142.0518  144.6062  163.8958 C.3     1  UNL1        0.0015
     19 C         140.5563  144.5960  163.7796 C.3     1  UNL1        0.0173
     20 C         142.1302  138.7728  163.1781 C.3     1  UNL1        0.0590
     21 S         141.2590  137.5805  162.9145 S.3     1  UNL1       -0.1393
     22 C         139.7898  137.6451  163.2102 C.3     1  UNL1        0.0692
@<TRIPOS>BOND
     1    18    19    1
     2    19    17    1
     3    17     1    1
     4     1     2    1
     5     2     3    1
     6     3    20    1
     7    20    21    1
     8    21    22    1
     9     3     4    1
    10     5     4    1
    11     5     6    1
    12     6     7    2
    13     7     8    1
    14     8     9    2
    15     9    10    1
    16    10    11    2
    17    11    12    1
    18    12    13    2
    19    13    14    1
    20    13    15    1
    21    16    15    1
    22    16     1    1
    23    16     5    1
    24    14     6    1
    25    14    10    1
@<TRIPOS>MOLECULE
*****
 22 25 0 0 0
SMALL
GASTEIGER

@<TRIPOS>ATOM
      1 N         142.7422  141.9835  164.1082 N.3     1  UNL1       -0.2733
      2 C         141.8076  141.4825  163.0472 C.3     1  UNL1        0.0729
      3 C         140.5244  140.8092  163.4351 C.3     1  UNL1        0.0271
      4 C         140.1760  140.6369  164.8838 C.3     1  UNL1        0.0077
      5 C         141.1106  141.1379  165.9448 C.3     1  UNL1        0.0340
      6 C         140.7621  140.9656  167.3936 C.2     1  UNL1       -0.0342
      7 C         139.4790  140.2923  167.7814 C.2     1  UNL1       -0.0078
      8 C         139.1306  140.1201  169.2301 C.2     1  UNL1        0.0006
      9 C         140.0652  140.6210  170.2910 C.2     1  UNL1        0.0153
     10 C         141.3482  141.2943  169.9032 C.2     1  UNL1        0.0662
     11 N         142.5281  141.9216  170.5845 N.2     1  UNL1       -0.2482
     12 C         143.4701  142.4098  169.5242 C.2     1  UNL1        0.0907
     13 C         142.9798  142.1399  168.0666 C.2     1  UNL1       -0.0148
     14 C         141.6967  141.4666  168.4545 C.3     1  UNL1        0.0783
     15 C         143.3282  142.3122  166.6179 C.3     1  UNL1        0.0405
     16 C         142.3936  141.8112  165.5570 C.3     1  UNL1        0.0653
     17 C         144.0252  142.6568  163.7204 C.3     1  UNL1        0.0721
     18 C         143.2842  145.1443  163.8341 C.3     1  UNL1        0.0015
     19 C         143.9997  144.0331  163.1246 C.3     1  UNL1        0.0173
     20 C         139.5899  140.3082  162.3742 C.3     1  UNL1        0.0590
     21 S         138.4076  139.4662  162.7529 S.3     1  UNL1       -0.1393
     22 C         138.1739  138.1512  162.0701 C.3     1  UNL1        0.0692
@<TRIPOS>BOND
     1    18    19    1
     2    19    17    1
     3    17     1    1
     4     1     2    1
     5     2     3    1
     6     3    20    1
     7    20    21    1
     8    21    22    1
     9     3     4    1
    10     5     4    1
    11     5     6    1
    12     6     7    2
    13     7     8    1
    14     8     9    2
    15     9    10    1
    16    10    11    2
    17    11    12    1
    18    12    13    2
    19    13    14    1
    20    13    15    1
    21    16    15    1
    22    16     1    1
    23    16     5    1
    24    14     6    1
    25    14    10    1
@<TRIPOS>MOLECULE
*****
 22 25 0 0 0
SMALL
GASTEIGER

@<TRIPOS>ATOM
      1 N         143.7927  142.7346  165.3698 N.3     1  UNL1       -0.2733
      2 C         143.6142  142.1867  166.7547 C.3     1  UNL1        0.0729
      3 C         142.2441  142.1115  167.3607 C.3     1  UNL1        0.0271
      4 C         141.0525  142.5843  166.5818 C.3     1  UNL1        0.0077
      5 C         141.2310  143.1322  165.1969 C.3     1  UNL1        0.0340
      6 C         140.0394  143.6051  164.4181 C.2     1  UNL1       -0.0342
      7 C         138.6694  143.5299  165.0241 C.2     1  UNL1       -0.0078
      8 C         137.4778  144.0027  164.2452 C.2     1  UNL1        0.0006
      9 C         137.6563  144.5506  162.8603 C.2     1  UNL1        0.0153
     10 C         139.0264  144.6258  162.2543 C.2     1  UNL1        0.0662
     11 N         139.6531  145.0760  160.9681 N.2     1  UNL1       -0.2482
     12 C         141.1321  144.8464  161.0678 C.2     1  UNL1        0.0907
     13 C         141.5880  144.2282  162.4272 C.2     1  UNL1       -0.0148
     14 C         140.2179  144.1530  163.0332 C.3     1  UNL1        0.0783
     15 C         142.7796  143.7554  163.2060 C.3     1  UNL1        0.0405
     16 C         142.6011  143.2074  164.5909 C.3     1  UNL1        0.0653
     17 C         145.1627  142.8098  164.7638 C.3     1  UNL1        0.0721
     18 C         145.0437  140.3210  164.0274 C.3     1  UNL1        0.0015
     19 C         145.6733  141.6785  163.9215 C.3     1  UNL1        0.0173
     20 C         142.0656  141.5636  168.7455 C.3     1  UNL1        0.0590
     21 S         140.6953  141.4872  169.3511 S.3     1  UNL1       -0.1393
     22 C         139.8857  140.2314  169.2188 C.3     1  UNL1        0.0692
@<TRIPOS>BOND
     1    18    19    1
     2    19    17    1
     3    17     1    1
     4     1     2    1
     5     2     3    1
     6     3    20    1
     7    20    21    1
     8    21    22    1
     9     3     4    1
    10     5     4    1
    11     5     6    1
    12     6     7    2
    13     7     8    1
    14     8     9    2
    15     9    10    1
    16    10    11    2
    17    11    12    1
    18    12    13    2
    19    13    14    1
    20    13    15    1
    21    16    15    1
    22    16     1    1
    23    16     5    1
    24    14     6    1
    25    14    10    1
@<TRIPOS>MOLECULE
*****
 22 25 0 0 0
SMALL
GASTEIGER

@<TRIPOS>ATOM
      1 N         142.7058  139.9449  164.9764 N.3     1  UNL1       -0.2733
      2 C         142.6793  139.7754  166.4665 C.3     1  UNL1        0.0729
      3 C         141.6753  140.5273  167.2892 C.3     1  UNL1        0.0271
      4 C         140.6977  141.4486  166.6216 C.3     1  UNL1        0.0077
      5 C         140.7242  141.6181  165.1315 C.3     1  UNL1        0.0340
      6 C         139.7466  142.5394  164.4639 C.2     1  UNL1       -0.0342
      7 C         138.7426  143.2912  165.2866 C.2     1  UNL1       -0.0078
      8 C         137.7651  144.2125  164.6190 C.2     1  UNL1        0.0006
      9 C         137.7916  144.3820  163.1289 C.2     1  UNL1        0.0153
     10 C         138.7956  143.6302  162.3062 C.2     1  UNL1        0.0662
     11 N         139.1743  143.4929  160.8613 N.2     1  UNL1       -0.2482
     12 C         140.3183  142.5269  160.7718 C.2     1  UNL1        0.0907
     13 C         140.7772  141.9570  162.1512 C.2     1  UNL1       -0.0148
     14 C         139.7731  142.7089  162.9738 C.3     1  UNL1        0.0783
     15 C         141.7547  141.0358  162.8187 C.3     1  UNL1        0.0405
     16 C         141.7282  140.8663  164.3088 C.3     1  UNL1        0.0653
     17 C         143.7098  139.1931  164.1537 C.3     1  UNL1        0.0721
     18 C         145.4798  141.0795  163.9109 C.3     1  UNL1        0.0015
     19 C         145.1432  139.6345  164.1323 C.3     1  UNL1        0.0173
     20 C         141.6488  140.3578  168.7793 C.3     1  UNL1        0.0590
     21 S         142.7196  140.9820  169.6243 S.3     1  UNL1       -0.1393
     22 C         143.3622  142.2667  169.1924 C.3     1  UNL1        0.0692
@<TRIPOS>BOND
     1    18    19    1
     2    19    17    1
     3    17     1    1
     4     1     2    1
     5     2     3    1
     6     3    20    1
     7    20    21    1
     8    21    22    1
     9     3     4    1
    10     5     4    1
    11     5     6    1
    12     6     7    2
    13     7     8    1
    14     8     9    2
    15     9    10    1
    16    10    11    2
    17    11    12    1
    18    12    13    2
    19    13    14    1
    20    13    15    1
    21    16    15    1
    22    16     1    1
    23    16     5    1
    24    14     6    1
    25    14    10    1
@<TRIPOS>MOLECULE
*****
 22 25 0 0 0
SMALL
GASTEIGER

@<TRIPOS>ATOM
      1 N         143.5654  142.4793  164.5118 N.3     1  UNL1       -0.2733
      2 C         143.6932  142.7404  165.9833 C.3     1  UNL1        0.0729
      3 C         142.8735  141.9495  166.9594 C.3     1  UNL1        0.0271
      4 C         141.9260  140.8975  166.4639 C.3     1  UNL1        0.0077
      5 C         141.7982  140.6364  164.9923 C.3     1  UNL1        0.0340
      6 C         140.8506  139.5844  164.4968 C.2     1  UNL1       -0.0342
      7 C         140.0310  138.7935  165.4728 C.2     1  UNL1       -0.0078
      8 C         139.0835  137.7416  164.9773 C.2     1  UNL1        0.0006
      9 C         138.9556  137.4805  163.5058 C.2     1  UNL1        0.0153
     10 C         139.7753  138.2713  162.5297 C.2     1  UNL1        0.0662
     11 N         139.9689  138.3517  161.0445 N.2     1  UNL1       -0.2482
     12 C         140.9892  139.4157  160.7670 C.2     1  UNL1        0.0907
     13 C         141.5425  140.1142  162.0492 C.2     1  UNL1       -0.0148
     14 C         140.7227  139.3233  163.0253 C.3     1  UNL1        0.0783
     15 C         142.4900  141.1662  162.5447 C.3     1  UNL1        0.0405
     16 C         142.6178  141.4273  164.0163 C.3     1  UNL1        0.0653
     17 C         144.3850  143.2701  163.5357 C.3     1  UNL1        0.0721
     18 C         142.6090  145.1663  163.5571 C.3     1  UNL1        0.0015
     19 C         143.8542  144.5591  162.9819 C.3     1  UNL1        0.0173
     20 C         143.0013  142.2106  168.4309 C.3     1  UNL1        0.0590
     21 S         142.2020  141.4010  169.4085 S.3     1  UNL1       -0.1393
     22 C         142.8610  140.3016  170.1877 C.3     1  UNL1        0.0692
@<TRIPOS>BOND
     1    18    19    1
     2    19    17    1
     3    17     1    1
     4     1     2    1
     5     2     3    1
     6     3    20    1
     7    20    21    1
     8    21    22    1
     9     3     4    1
    10     5     4    1
    11     5     6    1
    12     6     7    2
    13     7     8    1
    14     8     9    2
    15     9    10    1
    16    10    11    2
    17    11    12    1
    18    12    13    2
    19    13    14    1
    20    13    15    1
    21    16    15    1
    22    16     1    1
    23    16     5    1
    24    14     6    1
    25    14    10    1
