@<TRIPOS>MOLECULE
*****
 31 35 0 0 0
SMALL
GASTEIGER

@<TRIPOS>ATOM
      1 N         140.9227  143.1102  162.5772 N.am    1  UNL1       -0.2494
      2 C         141.6415  142.6650  161.3381 C.3     1  UNL1        0.1283
      3 C         141.2716  143.6011  160.2259 C.ar    1  UNL1        0.0411
      4 C         141.4872  143.9045  158.7729 C.ar    1  UNL1        0.0994
      5 N         140.6729  145.1157  158.4265 N.ar    1  UNL1       -0.2283
      6 N         139.9541  145.5609  159.6655 N.ar    1  UNL1       -0.1607
      7 C         140.3241  144.6248  160.7776 C.ar    1  UNL1        0.1540
      8 C         140.1085  144.3215  162.2307 C.2     1  UNL1        0.2722
      9 O         139.2324  145.0937  163.1721 O.2     1  UNL1       -0.2679
     10 C         140.5918  145.7673  157.0778 C.ar    1  UNL1        0.0829
     11 C         139.5791  146.8447  156.8252 C.ar    1  UNL1        0.0200
     12 C         139.4980  147.4963  155.4765 C.ar    1  UNL1        0.0129
     13 C         140.4295  147.0705  154.3805 C.ar    1  UNL1        0.0578
     14 CL        140.3483  147.7222  153.0319 Cl      1  UNL1       -0.0822
     15 C         141.4421  145.9932  154.6332 C.ar    1  UNL1        0.0129
     16 C         141.5232  145.3416  155.9819 C.ar    1  UNL1        0.0200
     17 C         140.3637  140.5165  165.5284 C.ar    1  UNL1        0.1531
     18 C         140.2826  141.1681  164.1799 C.ar    1  UNL1        0.0531
     19 C         141.0039  142.4586  163.9257 C.ar    1  UNL1        0.0576
     20 C         141.8063  143.0974  165.0203 C.ar    1  UNL1        0.0164
     21 C         141.8875  142.4458  166.3689 C.ar    1  UNL1        0.0189
     22 C         141.1662  141.1554  166.6230 C.ar    1  UNL1        0.0824
     23 N         141.2473  140.5037  167.9717 N.pl3   1  UNL1       -0.3028
     24 C         142.4299  139.7645  168.5239 C.3     1  UNL1        0.0935
     25 C         142.0736  139.2808  169.8983 C.3     1  UNL1        0.0524
     26 C         140.6708  139.7211  170.1955 C.3     1  UNL1        0.1319
     27 O         139.9120  139.4528  171.4613 O.3     1  UNL1       -0.3827
     28 C         140.1601  140.4770  169.0048 C.3     1  UNL1        0.1202
     29 H         140.4694  138.9442  172.0708 H       1  UNL1        0.2104
     30 C         138.1536  139.2225  165.9655 C.3     1  UNL1        0.2525
     31 O         139.6424  139.2261  165.7826 O.3     1  UNL1       -0.4701
@<TRIPOS>BOND
     1    30    31    1
     2    31    17    1
     3    17    18   ar
     4    18    19   ar
     5    19     1    1
     6     1     2    1
     7     2     3    1
     8     3     4   ar
     9     4     5   ar
    10     5    10    1
    11    10    11   ar
    12    11    12   ar
    13    12    13   ar
    14    13    14    1
    15    13    15   ar
    16    15    16   ar
    17     5     6   ar
    18     6     7   ar
    19     7     8    1
    20     8     9    2
    21    19    20   ar
    22    20    21   ar
    23    21    22   ar
    24    22    23    1
    25    23    24    1
    26    24    25    1
    27    25    26    1
    28    26    27    1
    29    26    28    1
    30    22    17   ar
    31    28    23    1
    32     8     1   am
    33     7     3   ar
    34    16    10   ar
    35    27    29    1
@<TRIPOS>MOLECULE
*****
 31 35 0 0 0
SMALL
GASTEIGER

@<TRIPOS>ATOM
      1 N         140.9909  143.1119  162.5847 N.am    1  UNL1       -0.2494
      2 C         139.9811  142.7979  161.5209 C.3     1  UNL1        0.1283
      3 C         140.3069  143.6261  160.3134 C.ar    1  UNL1        0.0411
      4 C         139.8841  143.9438  158.9098 C.ar    1  UNL1        0.0994
      5 N         140.8341  144.9661  158.3598 N.ar    1  UNL1       -0.2283
      6 N         141.8439  145.2802  159.4235 N.ar    1  UNL1       -0.1607
      7 C         141.5181  144.4520  160.6309 C.ar    1  UNL1        0.1540
      8 C         141.9409  144.1343  162.0346 C.2     1  UNL1        0.2722
      9 O         143.1086  144.7336  162.7608 O.2     1  UNL1       -0.2679
     10 C         140.7831  145.5686  156.9870 C.ar    1  UNL1        0.0829
     11 C         141.7253  145.0901  155.9225 C.ar    1  UNL1        0.0200
     12 C         141.6742  145.6926  154.5497 C.ar    1  UNL1        0.0129
     13 C         140.6811  146.7737  154.2415 C.ar    1  UNL1        0.0578
     14 CL        140.6302  147.3762  152.8688 Cl      1  UNL1       -0.0822
     15 C         139.7390  147.2523  155.3061 C.ar    1  UNL1        0.0129
     16 C         139.7900  146.6497  156.6788 C.ar    1  UNL1        0.0200
     17 C         141.4215  140.4532  165.4994 C.ar    1  UNL1        0.1531
     18 C         141.3705  141.0557  164.1267 C.ar    1  UNL1        0.0531
     19 C         141.0419  142.5095  163.9573 C.ar    1  UNL1        0.0576
     20 C         140.7643  143.3607  165.1608 C.ar    1  UNL1        0.0164
     21 C         140.8153  142.7583  166.5336 C.ar    1  UNL1        0.0189
     22 C         141.1439  141.3045  166.7029 C.ar    1  UNL1        0.0824
     23 N         141.1948  140.7020  168.0756 N.pl3   1  UNL1       -0.3028
     24 C         142.4345  140.2837  168.8094 C.3     1  UNL1        0.0935
     25 C         142.0209  139.7352  170.1428 C.3     1  UNL1        0.0524
     26 C         140.5258  139.8146  170.2332 C.3     1  UNL1        0.1319
     27 O         139.6882  139.3737  171.3969 O.3     1  UNL1       -0.3827
     28 C         140.0152  140.4121  168.9556 C.3     1  UNL1        0.1202
     29 H         140.2635  139.0237  172.0951 H       1  UNL1        0.2104
     30 C         143.1715  138.5338  165.5560 C.3     1  UNL1        0.2525
     31 O         141.7500  138.9994  165.6687 O.3     1  UNL1       -0.4701
@<TRIPOS>BOND
     1    30    31    1
     2    31    17    1
     3    17    18   ar
     4    18    19   ar
     5    19     1    1
     6     1     2    1
     7     2     3    1
     8     3     4   ar
     9     4     5   ar
    10     5    10    1
    11    10    11   ar
    12    11    12   ar
    13    12    13   ar
    14    13    14    1
    15    13    15   ar
    16    15    16   ar
    17     5     6   ar
    18     6     7   ar
    19     7     8    1
    20     8     9    2
    21    19    20   ar
    22    20    21   ar
    23    21    22   ar
    24    22    23    1
    25    23    24    1
    26    24    25    1
    27    25    26    1
    28    26    27    1
    29    26    28    1
    30    22    17   ar
    31    28    23    1
    32     8     1   am
    33     7     3   ar
    34    16    10   ar
    35    27    29    1
@<TRIPOS>MOLECULE
*****
 31 35 0 0 0
SMALL
GASTEIGER

@<TRIPOS>ATOM
      1 N         143.2666  141.8805  162.5926 N.am    1  UNL1       -0.2494
      2 C         143.1357  140.7221  161.6486 C.3     1  UNL1        0.1283
      3 C         143.7812  141.1067  160.3504 C.ar    1  UNL1        0.0411
      4 C         144.0992  140.6284  158.9647 C.ar    1  UNL1        0.0994
      5 N         144.8256  141.7290  158.2499 N.ar    1  UNL1       -0.2283
      6 N         144.9565  142.8874  159.1937 N.ar    1  UNL1       -0.1607
      7 C         144.3110  142.5028  160.4919 C.ar    1  UNL1        0.1540
      8 C         143.9930  142.9811  161.8776 C.2     1  UNL1        0.2722
      9 O         144.3404  144.3241  162.4483 O.2     1  UNL1       -0.2679
     10 C         145.3322  141.6798  156.8388 C.ar    1  UNL1        0.0829
     11 C         144.4480  141.1646  155.7421 C.ar    1  UNL1        0.0200
     12 C         144.9547  141.1154  154.3311 C.ar    1  UNL1        0.0129
     13 C         146.3454  141.5815  154.0168 C.ar    1  UNL1        0.0578
     14 CL        146.8519  141.5323  152.6058 Cl      1  UNL1       -0.0822
     15 C         147.2295  142.0967  155.1135 C.ar    1  UNL1        0.0129
     16 C         146.7228  142.1459  156.5246 C.ar    1  UNL1        0.0200
     17 C         140.8135  141.6759  165.7054 C.ar    1  UNL1        0.1531
     18 C         141.3200  141.6267  164.2945 C.ar    1  UNL1        0.0531
     19 C         142.7601  141.9297  164.0035 C.ar    1  UNL1        0.0576
     20 C         143.6935  142.2819  165.1236 C.ar    1  UNL1        0.0164
     21 C         143.1870  142.3311  166.5347 C.ar    1  UNL1        0.0189
     22 C         141.7470  142.0281  166.8256 C.ar    1  UNL1        0.0824
     23 N         141.2404  142.0774  168.2366 N.pl3   1  UNL1       -0.3028
     24 C         140.4418  143.1900  168.8483 C.3     1  UNL1        0.0935
     25 C         140.1513  142.8229  170.2734 C.3     1  UNL1        0.0524
     26 C         140.7704  141.4834  170.5424 C.3     1  UNL1        0.1319
     27 O         140.7244  140.7359  171.8421 O.3     1  UNL1       -0.3827
     28 C         141.4435  141.0226  169.2836 C.3     1  UNL1        0.1202
     29 H         140.2276  141.2531  172.4952 H       1  UNL1        0.2104
     30 C         138.3968  141.2186  164.8684 C.3     1  UNL1        0.2525
     31 O         139.3735  141.3729  165.9964 O.3     1  UNL1       -0.4701
@<TRIPOS>BOND
     1    30    31    1
     2    31    17    1
     3    17    18   ar
     4    18    19   ar
     5    19     1    1
     6     1     2    1
     7     2     3    1
     8     3     4   ar
     9     4     5   ar
    10     5    10    1
    11    10    11   ar
    12    11    12   ar
    13    12    13   ar
    14    13    14    1
    15    13    15   ar
    16    15    16   ar
    17     5     6   ar
    18     6     7   ar
    19     7     8    1
    20     8     9    2
    21    19    20   ar
    22    20    21   ar
    23    21    22   ar
    24    22    23    1
    25    23    24    1
    26    24    25    1
    27    25    26    1
    28    26    27    1
    29    26    28    1
    30    22    17   ar
    31    28    23    1
    32     8     1   am
    33     7     3   ar
    34    16    10   ar
    35    27    29    1
@<TRIPOS>MOLECULE
*****
 31 35 0 0 0
SMALL
GASTEIGER

@<TRIPOS>ATOM
      1 N         141.5267  139.6189  162.6029 N.am    1  UNL1       -0.2494
      2 C         140.4296  139.6377  161.5801 C.3     1  UNL1        0.1283
      3 C         140.9300  138.9389  160.3507 C.ar    1  UNL1        0.0411
      4 C         140.5612  138.5187  158.9588 C.ar    1  UNL1        0.0994
      5 N         141.7396  137.8083  158.3616 N.ar    1  UNL1       -0.2283
      6 N         142.8367  137.7895  159.3844 N.ar    1  UNL1       -0.1607
      7 C         142.3363  138.4883  160.6137 C.ar    1  UNL1        0.1540
      8 C         142.7051  138.9085  162.0056 C.2     1  UNL1        0.2722
      9 O         144.0212  138.6617  162.6816 O.2     1  UNL1       -0.2679
     10 C         141.8088  137.2199  156.9835 C.ar    1  UNL1        0.0829
     11 C         143.0723  136.5642  156.5106 C.ar    1  UNL1        0.0200
     12 C         143.1414  135.9759  155.1324 C.ar    1  UNL1        0.0129
     13 C         141.9471  136.0433  154.2273 C.ar    1  UNL1        0.0578
     14 CL        142.0164  135.4550  152.8493 Cl      1  UNL1       -0.0822
     15 C         140.6837  136.6990  154.7003 C.ar    1  UNL1        0.0129
     16 C         140.6146  137.2873  156.0784 C.ar    1  UNL1        0.0200
     17 C         140.3506  140.3136  166.3290 C.ar    1  UNL1        0.1531
     18 C         140.4198  139.7253  164.9510 C.ar    1  UNL1        0.0531
     19 C         141.4575  140.2072  163.9809 C.ar    1  UNL1        0.0576
     20 C         142.4260  141.2775  164.3890 C.ar    1  UNL1        0.0164
     21 C         142.3568  141.8659  165.7671 C.ar    1  UNL1        0.0189
     22 C         141.3192  141.3839  166.7371 C.ar    1  UNL1        0.0824
     23 N         141.2500  141.9722  168.1152 N.pl3   1  UNL1       -0.3028
     24 C         140.4200  143.1508  168.5300 C.3     1  UNL1        0.0935
     25 C         140.6556  143.3922  169.9916 C.3     1  UNL1        0.0524
     26 C         141.6312  142.3628  170.4800 C.3     1  UNL1        0.1319
     27 O         142.1486  142.2337  171.8820 O.3     1  UNL1       -0.3827
     28 C         141.9985  141.4852  169.3204 C.3     1  UNL1        0.1202
     29 H         141.7541  142.9245  172.4371 H       1  UNL1        0.2104
     30 C         138.2272  138.9054  166.8372 C.3     1  UNL1        0.2525
     31 O         139.3129  139.8316  167.2991 O.3     1  UNL1       -0.4701
@<TRIPOS>BOND
     1    30    31    1
     2    31    17    1
     3    17    18   ar
     4    18    19   ar
     5    19     1    1
     6     1     2    1
     7     2     3    1
     8     3     4   ar
     9     4     5   ar
    10     5    10    1
    11    10    11   ar
    12    11    12   ar
    13    12    13   ar
    14    13    14    1
    15    13    15   ar
    16    15    16   ar
    17     5     6   ar
    18     6     7   ar
    19     7     8    1
    20     8     9    2
    21    19    20   ar
    22    20    21   ar
    23    21    22   ar
    24    22    23    1
    25    23    24    1
    26    24    25    1
    27    25    26    1
    28    26    27    1
    29    26    28    1
    30    22    17   ar
    31    28    23    1
    32     8     1   am
    33     7     3   ar
    34    16    10   ar
    35    27    29    1
@<TRIPOS>MOLECULE
*****
 31 35 0 0 0
SMALL
GASTEIGER

@<TRIPOS>ATOM
      1 N         141.7620  139.6943  162.4085 N.am    1  UNL1       -0.2494
      2 C         140.6575  139.7041  161.3935 C.3     1  UNL1        0.1283
      3 C         141.1268  138.9413  160.1903 C.ar    1  UNL1        0.0411
      4 C         140.7342  138.4759  158.8194 C.ar    1  UNL1        0.0994
      5 N         141.8862  137.7071  158.2433 N.ar    1  UNL1       -0.2283
      6 N         142.9907  137.6973  159.2582 N.ar    1  UNL1       -0.1607
      7 C         142.5214  138.4601  160.4615 C.ar    1  UNL1        0.1540
      8 C         142.9140  138.9255  161.8323 C.2     1  UNL1        0.2722
      9 O         144.2279  138.6673  162.5084 O.2     1  UNL1       -0.2679
     10 C         141.9266  137.0614  156.8900 C.ar    1  UNL1        0.0829
     11 C         140.6777  136.9722  156.0640 C.ar    1  UNL1        0.0200
     12 C         140.7182  136.3265  154.7107 C.ar    1  UNL1        0.0129
     13 C         142.0075  135.7700  154.1834 C.ar    1  UNL1        0.0578
     14 CL        142.0478  135.1244  152.8300 Cl      1  UNL1       -0.0822
     15 C         143.2563  135.8593  155.0093 C.ar    1  UNL1        0.0129
     16 C         143.2159  136.5050  156.3627 C.ar    1  UNL1        0.0200
     17 C         142.6708  142.0575  165.4644 C.ar    1  UNL1        0.1531
     18 C         142.7111  141.4119  164.1112 C.ar    1  UNL1        0.0531
     19 C         141.7216  140.3399  163.7617 C.ar    1  UNL1        0.0576
     20 C         140.6918  139.9138  164.7656 C.ar    1  UNL1        0.0164
     21 C         140.6514  140.5594  166.1190 C.ar    1  UNL1        0.0189
     22 C         141.6409  141.6313  166.4684 C.ar    1  UNL1        0.0824
     23 N         141.6006  142.2770  167.8217 N.pl3   1  UNL1       -0.3028
     24 C         140.4461  143.0401  168.4004 C.3     1  UNL1        0.0935
     25 C         140.8396  143.5077  169.7703 C.3     1  UNL1        0.0524
     26 C         142.2372  143.0335  170.0382 C.3     1  UNL1        0.1319
     27 O         143.0261  143.2772  171.2905 O.3     1  UNL1       -0.3827
     28 C         142.7075  142.2729  168.8339 C.3     1  UNL1        0.1202
     29 H         142.4923  143.7950  171.9133 H       1  UNL1        0.2104
     30 C         144.2480  143.9884  164.7338 C.3     1  UNL1        0.2525
     31 O         143.6602  143.1294  165.8139 O.3     1  UNL1       -0.4701
@<TRIPOS>BOND
     1    30    31    1
     2    31    17    1
     3    17    18   ar
     4    18    19   ar
     5    19     1    1
     6     1     2    1
     7     2     3    1
     8     3     4   ar
     9     4     5   ar
    10     5    10    1
    11    10    11   ar
    12    11    12   ar
    13    12    13   ar
    14    13    14    1
    15    13    15   ar
    16    15    16   ar
    17     5     6   ar
    18     6     7   ar
    19     7     8    1
    20     8     9    2
    21    19    20   ar
    22    20    21   ar
    23    21    22   ar
    24    22    23    1
    25    23    24    1
    26    24    25    1
    27    25    26    1
    28    26    27    1
    29    26    28    1
    30    22    17   ar
    31    28    23    1
    32     8     1   am
    33     7     3   ar
    34    16    10   ar
    35    27    29    1
@<TRIPOS>MOLECULE
*****
 31 35 0 0 0
SMALL
GASTEIGER

@<TRIPOS>ATOM
      1 N         140.4743  143.8830  160.5864 N.am    1  UNL1       -0.2494
      2 C         141.0211  142.5759  161.0788 C.3     1  UNL1        0.1283
      3 C         140.6800  142.4495  162.5340 C.ar    1  UNL1        0.0411
      4 C         140.8072  141.5634  163.7377 C.ar    1  UNL1        0.0994
      5 N         140.1280  142.2448  164.8886 N.ar    1  UNL1       -0.2283
      6 N         139.5812  143.5519  164.3962 N.ar    1  UNL1       -0.1607
      7 C         139.9223  143.6784  162.9410 C.ar    1  UNL1        0.1540
      8 C         139.7952  144.5644  161.7373 C.2     1  UNL1        0.2722
      9 O         139.1093  145.8977  161.6924 O.2     1  UNL1       -0.2679
     10 C         140.0155  141.7126  166.2864 C.ar    1  UNL1        0.0829
     11 C         140.5091  142.5309  167.4426 C.ar    1  UNL1        0.0200
     12 C         140.3966  141.9985  168.8405 C.ar    1  UNL1        0.0129
     13 C         139.7904  140.6480  169.0822 C.ar    1  UNL1        0.0578
     14 CL        139.6779  140.1157  170.4801 Cl      1  UNL1       -0.0822
     15 C         139.2968  139.8296  167.9261 C.ar    1  UNL1        0.0129
     16 C         139.4093  140.3620  166.5282 C.ar    1  UNL1        0.0200
     17 C         139.7993  144.4203  156.7127 C.ar    1  UNL1        0.1531
     18 C         139.6868  143.8881  158.1105 C.ar    1  UNL1        0.0531
     19 C         140.5868  144.4153  159.1886 C.ar    1  UNL1        0.0576
     20 C         141.5992  145.4748  158.8687 C.ar    1  UNL1        0.0164
     21 C         141.7118  146.0072  157.4708 C.ar    1  UNL1        0.0189
     22 C         140.8119  145.4799  156.3928 C.ar    1  UNL1        0.0824
     23 N         140.9243  146.0122  154.9950 N.pl3   1  UNL1       -0.3028
     24 C         141.7283  145.4064  153.8829 C.3     1  UNL1        0.0935
     25 C         141.5535  146.2634  152.6644 C.3     1  UNL1        0.0524
     26 C         140.6414  147.3989  153.0234 C.3     1  UNL1        0.1319
     27 O         140.1964  148.4969  152.1034 O.3     1  UNL1       -0.3827
     28 C         140.2526  147.2436  154.4637 C.3     1  UNL1        0.1202
     29 H         140.5906  148.3643  151.2271 H       1  UNL1        0.2104
     30 C         137.6131  144.5978  155.3203 C.3     1  UNL1        0.2525
     31 O         138.8994  143.8931  155.6347 O.3     1  UNL1       -0.4701
@<TRIPOS>BOND
     1    30    31    1
     2    31    17    1
     3    17    18   ar
     4    18    19   ar
     5    19     1    1
     6     1     2    1
     7     2     3    1
     8     3     4   ar
     9     4     5   ar
    10     5    10    1
    11    10    11   ar
    12    11    12   ar
    13    12    13   ar
    14    13    14    1
    15    13    15   ar
    16    15    16   ar
    17     5     6   ar
    18     6     7   ar
    19     7     8    1
    20     8     9    2
    21    19    20   ar
    22    20    21   ar
    23    21    22   ar
    24    22    23    1
    25    23    24    1
    26    24    25    1
    27    25    26    1
    28    26    27    1
    29    26    28    1
    30    22    17   ar
    31    28    23    1
    32     8     1   am
    33     7     3   ar
    34    16    10   ar
    35    27    29    1
@<TRIPOS>MOLECULE
*****
 31 35 0 0 0
SMALL
GASTEIGER

@<TRIPOS>ATOM
      1 N         142.9420  140.7337  160.5469 N.am    1  UNL1       -0.2494
      2 C         143.1166  139.8704  159.3326 C.3     1  UNL1        0.1283
      3 C         144.0413  140.5800  158.3884 C.ar    1  UNL1        0.0411
      4 C         144.7207  140.4849  157.0545 C.ar    1  UNL1        0.0994
      5 N         145.5374  141.7280  156.8607 N.ar    1  UNL1       -0.2283
      6 N         145.3629  142.5914  158.0749 N.ar    1  UNL1       -0.1607
      7 C         144.4382  141.8818  159.0191 C.ar    1  UNL1        0.1540
      8 C         143.7588  141.9769  160.3530 C.2     1  UNL1        0.2722
      9 O         143.8757  143.1152  161.3229 O.2     1  UNL1       -0.2679
     10 C         146.3807  142.0511  155.6630 C.ar    1  UNL1        0.0829
     11 C         145.7281  142.3974  154.3576 C.ar    1  UNL1        0.0200
     12 C         146.5715  142.7205  153.1599 C.ar    1  UNL1        0.0129
     13 C         148.0674  142.6973  153.2677 C.ar    1  UNL1        0.0578
     14 CL        148.9108  143.0204  152.0700 Cl      1  UNL1       -0.0822
     15 C         148.7201  142.3510  154.5731 C.ar    1  UNL1        0.0129
     16 C         147.8767  142.0279  155.7708 C.ar    1  UNL1        0.0200
     17 C         139.8145  140.5028  162.9789 C.ar    1  UNL1        0.1531
     18 C         140.6578  140.8259  161.7813 C.ar    1  UNL1        0.0531
     19 C         142.0987  140.4106  161.7445 C.ar    1  UNL1        0.0576
     20 C         142.6963  139.6724  162.9054 C.ar    1  UNL1        0.0164
     21 C         141.8531  139.3493  164.1032 C.ar    1  UNL1        0.0189
     22 C         140.4122  139.7645  164.1399 C.ar    1  UNL1        0.0824
     23 N         139.5688  139.4414  165.3376 N.pl3   1  UNL1       -0.3028
     24 C         139.6172  140.1398  166.6642 C.3     1  UNL1        0.0935
     25 C         138.6074  139.4933  167.5655 C.3     1  UNL1        0.0524
     26 C         137.9349  138.3954  166.7958 C.3     1  UNL1        0.1319
     27 O         136.8573  137.4887  167.3124 O.3     1  UNL1       -0.3827
     28 C         138.5291  138.3633  165.4189 C.3     1  UNL1        0.1202
     29 H         136.6546  137.7191  168.2326 H       1  UNL1        0.2104
     30 C         137.9864  142.2290  163.6333 C.3     1  UNL1        0.2525
     31 O         138.3735  140.9180  163.0157 O.3     1  UNL1       -0.4701
@<TRIPOS>BOND
     1    30    31    1
     2    31    17    1
     3    17    18   ar
     4    18    19   ar
     5    19     1    1
     6     1     2    1
     7     2     3    1
     8     3     4   ar
     9     4     5   ar
    10     5    10    1
    11    10    11   ar
    12    11    12   ar
    13    12    13   ar
    14    13    14    1
    15    13    15   ar
    16    15    16   ar
    17     5     6   ar
    18     6     7   ar
    19     7     8    1
    20     8     9    2
    21    19    20   ar
    22    20    21   ar
    23    21    22   ar
    24    22    23    1
    25    23    24    1
    26    24    25    1
    27    25    26    1
    28    26    27    1
    29    26    28    1
    30    22    17   ar
    31    28    23    1
    32     8     1   am
    33     7     3   ar
    34    16    10   ar
    35    27    29    1
@<TRIPOS>MOLECULE
*****
 31 35 0 0 0
SMALL
GASTEIGER

@<TRIPOS>ATOM
      1 N         141.0090  139.1503  161.3472 N.am    1  UNL1       -0.2494
      2 C         140.9523  140.5936  161.7520 C.3     1  UNL1        0.1283
      3 C         140.7574  140.6509  163.2382 C.ar    1  UNL1        0.0411
      4 C         140.6019  141.5783  164.4068 C.ar    1  UNL1        0.0994
      5 N         140.4421  140.7436  165.6428 N.ar    1  UNL1       -0.2283
      6 N         140.4988  139.3004  165.2381 N.ar    1  UNL1       -0.1607
      7 C         140.6937  139.2431  163.7519 C.ar    1  UNL1        0.1540
      8 C         140.8492  138.3157  162.5833 C.2     1  UNL1        0.2722
      9 O         140.8455  136.8168  162.6406 O.2     1  UNL1       -0.2679
     10 C         140.2579  141.2613  167.0386 C.ar    1  UNL1        0.0829
     11 C         139.7244  140.3568  168.1097 C.ar    1  UNL1        0.0200
     12 C         139.5403  140.8745  169.5054 C.ar    1  UNL1        0.0129
     13 C         139.8896  142.2967  169.8301 C.ar    1  UNL1        0.0578
     14 CL        139.7054  142.8143  171.2258 Cl      1  UNL1       -0.0822
     15 C         140.4231  143.2012  168.7590 C.ar    1  UNL1        0.0129
     16 C         140.6072  142.6834  167.3632 C.ar    1  UNL1        0.0200
     17 C         140.2199  138.1023  157.6017 C.ar    1  UNL1        0.1531
     18 C         140.0357  138.6200  158.9974 C.ar    1  UNL1        0.0531
     19 C         141.1932  138.6327  159.9515 C.ar    1  UNL1        0.0576
     20 C         142.5348  138.1277  159.5098 C.ar    1  UNL1        0.0164
     21 C         142.7190  137.6100  158.1140 C.ar    1  UNL1        0.0189
     22 C         141.5616  137.5973  157.1600 C.ar    1  UNL1        0.0824
     23 N         141.7458  137.0796  155.7643 N.pl3   1  UNL1       -0.3028
     24 C         142.0351  137.9080  154.5477 C.3     1  UNL1        0.0935
     25 C         142.1411  136.9831  153.3716 C.3     1  UNL1        0.0524
     26 C         141.9172  135.5831  153.8613 C.3     1  UNL1        0.1319
     27 O         141.9346  134.3414  153.0199 O.3     1  UNL1       -0.3827
     28 C         141.6729  135.6427  155.3401 C.3     1  UNL1        0.1202
     29 H         142.1148  134.5788  152.0968 H       1  UNL1        0.2104
     30 C         138.7818  139.2900  155.7930 C.3     1  UNL1        0.2525
     31 O         139.0625  138.0896  156.6476 O.3     1  UNL1       -0.4701
@<TRIPOS>BOND
     1    30    31    1
     2    31    17    1
     3    17    18   ar
     4    18    19   ar
     5    19     1    1
     6     1     2    1
     7     2     3    1
     8     3     4   ar
     9     4     5   ar
    10     5    10    1
    11    10    11   ar
    12    11    12   ar
    13    12    13   ar
    14    13    14    1
    15    13    15   ar
    16    15    16   ar
    17     5     6   ar
    18     6     7   ar
    19     7     8    1
    20     8     9    2
    21    19    20   ar
    22    20    21   ar
    23    21    22   ar
    24    22    23    1
    25    23    24    1
    26    24    25    1
    27    25    26    1
    28    26    27    1
    29    26    28    1
    30    22    17   ar
    31    28    23    1
    32     8     1   am
    33     7     3   ar
    34    16    10   ar
    35    27    29    1
@<TRIPOS>MOLECULE
*****
 31 35 0 0 0
SMALL
GASTEIGER

@<TRIPOS>ATOM
      1 N         139.0591  141.1619  162.8177 N.am    1  UNL1       -0.2494
      2 C         139.1898  142.2957  161.8444 C.3     1  UNL1        0.1283
      3 C         138.6803  141.8259  160.5141 C.ar    1  UNL1        0.0411
      4 C         138.4462  142.2363  159.0905 C.ar    1  UNL1        0.0994
      5 N         137.8560  141.0656  158.3618 N.ar    1  UNL1       -0.2283
      6 N         137.7253  139.9317  159.3350 N.ar    1  UNL1       -0.1607
      7 C         138.2347  140.4016  160.6653 C.ar    1  UNL1        0.1540
      8 C         138.4688  139.9911  162.0889 C.2     1  UNL1        0.2722
      9 O         138.1659  138.6462  162.6800 O.2     1  UNL1       -0.2679
     10 C         137.4650  141.0343  156.9139 C.ar    1  UNL1        0.0829
     11 C         136.0162  140.9796  156.5293 C.ar    1  UNL1        0.0200
     12 C         135.6254  140.9483  155.0814 C.ar    1  UNL1        0.0129
     13 C         136.6832  140.9716  154.0182 C.ar    1  UNL1        0.0578
     14 CL        136.2923  140.9403  152.5704 Cl      1  UNL1       -0.0822
     15 C         138.1320  141.0263  154.4029 C.ar    1  UNL1        0.0129
     16 C         138.5229  141.0576  155.8508 C.ar    1  UNL1        0.0200
     17 C         139.2632  140.2220  166.6680 C.ar    1  UNL1        0.1531
     18 C         138.8723  140.1907  165.2202 C.ar    1  UNL1        0.0531
     19 C         139.4500  141.1931  164.2655 C.ar    1  UNL1        0.0576
     20 C         140.4186  142.2268  164.7587 C.ar    1  UNL1        0.0164
     21 C         140.8096  142.2582  166.2065 C.ar    1  UNL1        0.0189
     22 C         140.2319  141.2557  167.1612 C.ar    1  UNL1        0.0824
     23 N         140.6228  141.2870  168.6090 N.pl3   1  UNL1       -0.3028
     24 C         139.9556  142.0912  169.6852 C.3     1  UNL1        0.0935
     25 C         140.6700  141.8208  170.9761 C.3     1  UNL1        0.0524
     26 C         141.7786  140.8495  170.6978 C.3     1  UNL1        0.1319
     27 O         142.7465  140.3039  171.7055 O.3     1  UNL1       -0.3827
     28 C         141.7495  140.5196  169.2348 C.3     1  UNL1        0.1202
     29 H         142.5484  140.6766  172.5789 H       1  UNL1        0.2104
     30 C         137.5221  138.3700  167.2050 C.3     1  UNL1        0.2525
     31 O         138.6855  139.2195  167.6227 O.3     1  UNL1       -0.4701
@<TRIPOS>BOND
     1    30    31    1
     2    31    17    1
     3    17    18   ar
     4    18    19   ar
     5    19     1    1
     6     1     2    1
     7     2     3    1
     8     3     4   ar
     9     4     5   ar
    10     5    10    1
    11    10    11   ar
    12    11    12   ar
    13    12    13   ar
    14    13    14    1
    15    13    15   ar
    16    15    16   ar
    17     5     6   ar
    18     6     7   ar
    19     7     8    1
    20     8     9    2
    21    19    20   ar
    22    20    21   ar
    23    21    22   ar
    24    22    23    1
    25    23    24    1
    26    24    25    1
    27    25    26    1
    28    26    27    1
    29    26    28    1
    30    22    17   ar
    31    28    23    1
    32     8     1   am
    33     7     3   ar
    34    16    10   ar
    35    27    29    1
