@<TRIPOS>MOLECULE
*****
 32 35 0 0 0
SMALL
GASTEIGER

@<TRIPOS>ATOM
      1 C         141.8633  137.8149  157.6060 C.3     1  UNL1        0.2120
      2 O         140.5723  138.4233  157.1443 O.3     1  UNL1       -0.4344
      3 C         139.8297  138.9085  158.3539 C.2     1  UNL1        0.4089
      4 O         138.4903  139.5836  158.3542 O.2     1  UNL1       -0.2258
      5 N         140.6618  138.6000  159.5632 N.am    1  UNL1       -0.2163
      6 C         140.4374  138.8471  161.0256 C.ar    1  UNL1        0.0933
      7 C         139.1805  139.5230  161.4878 C.ar    1  UNL1        0.0477
      8 C         138.9562  139.7702  162.9502 C.ar    1  UNL1        0.1412
      9 F         137.6993  140.4461  163.4124 F       1  UNL1       -0.2041
     10 C         139.9886  139.3415  163.9504 C.ar    1  UNL1        0.0264
     11 C         141.2454  138.6657  163.4882 C.ar    1  UNL1        0.0401
     12 C         141.4698  138.4185  162.0258 C.ar    1  UNL1        0.1524
     13 O         142.7266  137.7426  161.5636 O.3     1  UNL1       -0.4723
     14 C         142.9510  137.4955  160.1012 C.3     1  UNL1        0.2293
     15 C         141.9185  137.9241  159.1011 C.3     1  UNL1        0.1682
     16 C         139.7642  139.5887  165.4128 C.2     1  UNL1       -0.0208
     17 C         140.7423  140.4168  166.1922 C.2     1  UNL1       -0.0088
     18 C         140.5178  140.6639  167.6546 C.3     1  UNL1        0.1196
     19 N         139.3152  140.0831  168.3375 N.am    1  UNL1       -0.2731
     20 C         139.0908  140.3303  169.7999 C.2     1  UNL1        0.2558
     21 O         137.8882  139.7494  170.4828 O.2     1  UNL1       -0.2721
     22 C         138.3371  139.2550  167.5580 C.3     1  UNL1        0.0985
     23 C         138.5616  139.0078  166.0957 C.3     1  UNL1        0.0476
     24 C         140.0689  141.1583  170.5793 C.3     1  UNL1        0.2232
     25 O         140.6496  140.6284  171.8568 O.3     1  UNL1       -0.3737
     26 H         139.9468  140.5408  172.5195 H       1  UNL1        0.2110
     27 C         142.9144  137.2045  156.7271 C.3     1  UNL1        0.1353
     28 C         142.5235  133.2956  156.1633 C.3     1  UNL1        0.0946
     29 C         142.2570  134.7704  156.1003 C.2     1  UNL1        0.2231
     30 O         141.0665  135.2859  155.3473 O.2     1  UNL1       -0.2751
     31 N         143.1809  135.7297  156.7901 N.am    1  UNL1       -0.3011
     32 H         143.9623  135.3914  157.2843 H       1  UNL1        0.1495
@<TRIPOS>BOND
     1    28    29    1
     2    29    30    2
     3    29    31   am
     4    31    27    1
     5     1    27    1
     6     1     2    1
     7     2     3    1
     8     3     4    2
     9     3     5   am
    10     5     6    1
    11     6     7   ar
    12     7     8   ar
    13     8     9    1
    14     8    10   ar
    15    10    16    1
    16    16    17    2
    17    17    18    1
    18    18    19    1
    19    19    20   am
    20    20    21    2
    21    20    24    1
    22    24    25    1
    23    19    22    1
    24    22    23    1
    25    10    11   ar
    26    11    12   ar
    27    12    13    1
    28    13    14    1
    29    15    14    1
    30    15     1    1
    31    15     5    1
    32    12     6   ar
    33    23    16    1
    34    31    32    1
    35    25    26    1
@<TRIPOS>MOLECULE
*****
 32 35 0 0 0
SMALL
GASTEIGER

@<TRIPOS>ATOM
      1 C         144.2843  141.4133  158.3725 C.3     1  UNL1        0.2120
      2 O         144.2133  139.9297  158.1630 O.3     1  UNL1       -0.4344
      3 C         143.6929  139.3078  159.4249 C.2     1  UNL1        0.4089
      4 O         143.4634  137.8437  159.6567 O.2     1  UNL1       -0.2258
      5 N         143.4423  140.4070  160.4143 N.am    1  UNL1       -0.2163
      6 C         142.9286  140.3911  161.8235 C.ar    1  UNL1        0.0933
      7 C         142.5630  139.0898  162.4740 C.ar    1  UNL1        0.0477
      8 C         142.0493  139.0740  163.8831 C.ar    1  UNL1        0.1412
      9 F         141.6838  137.7727  164.5336 F       1  UNL1       -0.2041
     10 C         141.9010  140.3594  164.6418 C.ar    1  UNL1        0.0264
     11 C         142.2665  141.6607  163.9914 C.ar    1  UNL1        0.0401
     12 C         142.7803  141.6766  162.5822 C.ar    1  UNL1        0.1524
     13 O         143.1458  142.9778  161.9318 O.3     1  UNL1       -0.4723
     14 C         143.6595  142.9937  160.5227 C.3     1  UNL1        0.2293
     15 C         143.8078  141.7082  159.7639 C.3     1  UNL1        0.1682
     16 C         141.3872  140.3435  166.0511 C.2     1  UNL1       -0.0208
     17 C         142.2734  140.7859  167.1775 C.2     1  UNL1       -0.0088
     18 C         141.7596  140.7700  168.5866 C.3     1  UNL1        0.1196
     19 N         140.3596  140.3117  168.8693 N.am    1  UNL1       -0.2731
     20 C         139.8458  140.2958  170.2786 C.2     1  UNL1        0.2558
     21 O         138.4458  139.8376  170.5613 O.2     1  UNL1       -0.2721
     22 C         139.4734  139.8694  167.7429 C.3     1  UNL1        0.0985
     23 C         139.9872  139.8853  166.3338 C.3     1  UNL1        0.0476
     24 C         140.7320  140.7382  171.4050 C.3     1  UNL1        0.2232
     25 O         140.6270  142.1367  171.9371 O.3     1  UNL1       -0.3737
     26 H         140.9079  142.7647  171.2533 H       1  UNL1        0.2110
     27 C         144.7500  142.4244  157.3671 C.3     1  UNL1        0.1353
     28 C         148.3956  142.0645  155.8406 C.3     1  UNL1        0.0946
     29 C         146.9280  141.8557  156.0698 C.2     1  UNL1        0.2231
     30 O         146.1707  140.8695  155.2308 O.2     1  UNL1       -0.2751
     31 N         146.2176  142.6331  157.1379 N.am    1  UNL1       -0.3011
     32 H         146.7147  143.2804  157.6886 H       1  UNL1        0.1495
@<TRIPOS>BOND
     1    28    29    1
     2    29    30    2
     3    29    31   am
     4    31    27    1
     5     1    27    1
     6     1     2    1
     7     2     3    1
     8     3     4    2
     9     3     5   am
    10     5     6    1
    11     6     7   ar
    12     7     8   ar
    13     8     9    1
    14     8    10   ar
    15    10    16    1
    16    16    17    2
    17    17    18    1
    18    18    19    1
    19    19    20   am
    20    20    21    2
    21    20    24    1
    22    24    25    1
    23    19    22    1
    24    22    23    1
    25    10    11   ar
    26    11    12   ar
    27    12    13    1
    28    13    14    1
    29    15    14    1
    30    15     1    1
    31    15     5    1
    32    12     6   ar
    33    23    16    1
    34    31    32    1
    35    25    26    1
@<TRIPOS>MOLECULE
*****
 32 35 0 0 0
SMALL
GASTEIGER

@<TRIPOS>ATOM
      1 C         141.9004  137.8709  157.6568 C.3     1  UNL1        0.2120
      2 O         140.5988  138.4544  157.1926 O.3     1  UNL1       -0.4344
      3 C         139.8446  138.9248  158.4009 C.2     1  UNL1        0.4089
      4 O         138.4924  139.5740  158.3986 O.2     1  UNL1       -0.2258
      5 N         140.6800  138.6320  159.6118 N.am    1  UNL1       -0.2163
      6 C         140.4480  138.8743  161.0738 C.ar    1  UNL1        0.0933
      7 C         139.1774  139.5257  161.5337 C.ar    1  UNL1        0.0477
      8 C         138.9454  139.7680  162.9957 C.ar    1  UNL1        0.1412
      9 F         137.6748  140.4194  163.4556 F       1  UNL1       -0.2041
     10 C         139.9838  139.3590  163.9978 C.ar    1  UNL1        0.0264
     11 C         141.2544  138.7077  163.5380 C.ar    1  UNL1        0.0401
     12 C         141.4865  138.4653  162.0759 C.ar    1  UNL1        0.1524
     13 O         142.7570  137.8140  161.6161 O.3     1  UNL1       -0.4723
     14 C         142.9890  137.5717  160.1541 C.3     1  UNL1        0.2293
     15 C         141.9505  137.9807  159.1520 C.3     1  UNL1        0.1682
     16 C         139.7518  139.6014  165.4598 C.2     1  UNL1       -0.0208
     17 C         140.7057  140.4576  166.2388 C.2     1  UNL1       -0.0088
     18 C         140.4736  140.6999  167.7008 C.3     1  UNL1        0.1196
     19 N         139.2875  140.0861  168.3837 N.am    1  UNL1       -0.2731
     20 C         139.0554  140.3284  169.8458 C.2     1  UNL1        0.2558
     21 O         137.8693  139.7146  170.5287 O.2     1  UNL1       -0.2721
     22 C         138.3336  139.2299  167.6047 C.3     1  UNL1        0.0985
     23 C         138.5657  138.9876  166.1428 C.3     1  UNL1        0.0476
     24 C         140.0094  141.1846  170.6248 C.3     1  UNL1        0.2232
     25 O         140.6935  140.6310  171.8395 O.3     1  UNL1       -0.3737
     26 H         140.0346  140.4535  172.5289 H       1  UNL1        0.2110
     27 C         142.9649  137.2811  156.7799 C.3     1  UNL1        0.1353
     28 C         144.7463  140.0090  154.5138 C.3     1  UNL1        0.0946
     29 C         144.2744  139.2622  155.7260 C.2     1  UNL1        0.2231
     30 O         144.6400  139.7496  157.0967 O.2     1  UNL1       -0.2751
     31 N         143.4368  138.0280  155.5676 N.am    1  UNL1       -0.3011
     32 H         143.1968  137.7081  154.6680 H       1  UNL1        0.1495
@<TRIPOS>BOND
     1    28    29    1
     2    29    30    2
     3    29    31   am
     4    31    27    1
     5     1    27    1
     6     1     2    1
     7     2     3    1
     8     3     4    2
     9     3     5   am
    10     5     6    1
    11     6     7   ar
    12     7     8   ar
    13     8     9    1
    14     8    10   ar
    15    10    16    1
    16    16    17    2
    17    17    18    1
    18    18    19    1
    19    19    20   am
    20    20    21    2
    21    20    24    1
    22    24    25    1
    23    19    22    1
    24    22    23    1
    25    10    11   ar
    26    11    12   ar
    27    12    13    1
    28    13    14    1
    29    15    14    1
    30    15     1    1
    31    15     5    1
    32    12     6   ar
    33    23    16    1
    34    31    32    1
    35    25    26    1
@<TRIPOS>MOLECULE
*****
 32 35 0 0 0
SMALL
GASTEIGER

@<TRIPOS>ATOM
      1 C         140.5997  138.2287  157.5808 C.3     1  UNL1        0.2120
      2 O         139.2149  138.7913  157.7058 O.3     1  UNL1       -0.4344
      3 C         139.0482  139.3058  159.1049 C.2     1  UNL1        0.4089
      4 O         137.8160  139.9516  159.6659 O.2     1  UNL1       -0.2258
      5 N         140.3299  139.0612  159.8446 N.am    1  UNL1       -0.2163
      6 C         140.7479  139.3586  161.2541 C.ar    1  UNL1        0.0933
      7 C         139.7889  140.0243  162.1962 C.ar    1  UNL1        0.0477
      8 C         140.2069  140.3217  163.6057 C.ar    1  UNL1        0.1412
      9 F         139.2479  140.9874  164.5477 F       1  UNL1       -0.2041
     10 C         141.5837  139.9534  164.0733 C.ar    1  UNL1        0.0264
     11 C         142.5426  139.2877  163.1314 C.ar    1  UNL1        0.0401
     12 C         142.1247  138.9903  161.7217 C.ar    1  UNL1        0.1524
     13 O         143.0836  138.3246  160.7798 O.3     1  UNL1       -0.4723
     14 C         142.6657  138.0272  159.3703 C.3     1  UNL1        0.2293
     15 C         141.2889  138.3955  158.9027 C.3     1  UNL1        0.1682
     16 C         142.0016  140.2508  165.4829 C.2     1  UNL1       -0.0208
     17 C         142.2523  141.6673  165.9079 C.2     1  UNL1       -0.0088
     18 C         142.6702  141.9646  167.3174 C.3     1  UNL1        0.1196
     19 N         142.8374  140.8455  168.3021 N.am    1  UNL1       -0.2731
     20 C         143.2553  141.1429  169.7117 C.2     1  UNL1        0.2558
     21 O         143.4225  140.0237  170.6963 O.2     1  UNL1       -0.2721
     22 C         142.5867  139.4289  167.8771 C.3     1  UNL1        0.0985
     23 C         142.1689  139.1316  166.4676 C.3     1  UNL1        0.0476
     24 C         143.5059  142.5594  170.1366 C.3     1  UNL1        0.2232
     25 O         144.9118  143.0533  170.3080 O.3     1  UNL1       -0.3737
     26 H         145.3311  142.5855  171.0471 H       1  UNL1        0.2110
     27 C         141.1915  137.6082  156.3500 C.3     1  UNL1        0.1353
     28 C         143.7952  134.6132  156.3227 C.3     1  UNL1        0.0946
     29 C         143.2321  136.0023  156.2657 C.2     1  UNL1        0.2231
     30 O         144.1465  137.1748  156.0672 O.2     1  UNL1       -0.2751
     31 N         141.7546  136.2191  156.4070 N.am    1  UNL1       -0.3011
     32 H         141.1544  135.4497  156.5373 H       1  UNL1        0.1495
@<TRIPOS>BOND
     1    28    29    1
     2    29    30    2
     3    29    31   am
     4    31    27    1
     5     1    27    1
     6     1     2    1
     7     2     3    1
     8     3     4    2
     9     3     5   am
    10     5     6    1
    11     6     7   ar
    12     7     8   ar
    13     8     9    1
    14     8    10   ar
    15    10    16    1
    16    16    17    2
    17    17    18    1
    18    18    19    1
    19    19    20   am
    20    20    21    2
    21    20    24    1
    22    24    25    1
    23    19    22    1
    24    22    23    1
    25    10    11   ar
    26    11    12   ar
    27    12    13    1
    28    13    14    1
    29    15    14    1
    30    15     1    1
    31    15     5    1
    32    12     6   ar
    33    23    16    1
    34    31    32    1
    35    25    26    1
@<TRIPOS>MOLECULE
*****
 32 35 0 0 0
SMALL
GASTEIGER

@<TRIPOS>ATOM
      1 C         139.8662  140.2198  168.8831 C.3     1  UNL1        0.2120
      2 O         138.5384  139.5237  168.8347 O.3     1  UNL1       -0.4344
      3 C         138.3273  139.0248  167.4359 C.2     1  UNL1        0.4089
      4 O         137.1292  138.2706  166.9402 O.2     1  UNL1       -0.2258
      5 N         139.5247  139.4125  166.6198 N.am    1  UNL1       -0.2163
      6 C         139.8718  139.1886  165.1779 C.ar    1  UNL1        0.0933
      7 C         138.9207  138.4500  164.2834 C.ar    1  UNL1        0.0477
      8 C         139.2679  138.2261  162.8414 C.ar    1  UNL1        0.1412
      9 F         138.3168  137.4875  161.9469 F       1  UNL1       -0.2041
     10 C         140.5661  138.7406  162.2939 C.ar    1  UNL1        0.0264
     11 C         141.5172  139.4791  163.1883 C.ar    1  UNL1        0.0401
     12 C         141.1701  139.7031  164.6303 C.ar    1  UNL1        0.1524
     13 O         142.1212  140.4416  165.5247 O.3     1  UNL1       -0.4723
     14 C         141.7740  140.6656  166.9667 C.3     1  UNL1        0.2293
     15 C         140.4758  140.1511  167.5142 C.3     1  UNL1        0.1682
     16 C         140.9133  138.5166  160.8518 C.2     1  UNL1       -0.0208
     17 C         142.2751  138.0110  160.4780 C.2     1  UNL1       -0.0088
     18 C         142.6222  137.7871  159.0361 C.3     1  UNL1        0.1196
     19 N         141.6074  138.0686  157.9679 N.am    1  UNL1       -0.2731
     20 C         141.9546  137.8446  156.5259 C.2     1  UNL1        0.2558
     21 O         140.9398  138.1262  155.4577 O.2     1  UNL1       -0.2721
     22 C         140.2456  138.5742  158.3417 C.3     1  UNL1        0.0985
     23 C         139.8985  138.7982  159.7837 C.3     1  UNL1        0.0476
     24 C         143.3164  137.3391  156.1521 C.3     1  UNL1        0.2232
     25 O         144.4520  138.3031  155.9763 O.3     1  UNL1       -0.3737
     26 H         144.2758  138.8746  155.2126 H       1  UNL1        0.2110
     27 C         140.4772  140.8703  170.0887 C.3     1  UNL1        0.1353
     28 C         144.1042  142.4703  169.9024 C.3     1  UNL1        0.0946
     29 C         143.0071  141.4612  170.0699 C.2     1  UNL1        0.2231
     30 O         143.3428  140.0338  170.3859 O.2     1  UNL1       -0.2751
     31 N         141.5743  141.8794  169.9213 N.am    1  UNL1       -0.3011
     32 H         141.3540  142.8162  169.7138 H       1  UNL1        0.1495
@<TRIPOS>BOND
     1    28    29    1
     2    29    30    2
     3    29    31   am
     4    31    27    1
     5     1    27    1
     6     1     2    1
     7     2     3    1
     8     3     4    2
     9     3     5   am
    10     5     6    1
    11     6     7   ar
    12     7     8   ar
    13     8     9    1
    14     8    10   ar
    15    10    16    1
    16    16    17    2
    17    17    18    1
    18    18    19    1
    19    19    20   am
    20    20    21    2
    21    20    24    1
    22    24    25    1
    23    19    22    1
    24    22    23    1
    25    10    11   ar
    26    11    12   ar
    27    12    13    1
    28    13    14    1
    29    15    14    1
    30    15     1    1
    31    15     5    1
    32    12     6   ar
    33    23    16    1
    34    31    32    1
    35    25    26    1
@<TRIPOS>MOLECULE
*****
 32 35 0 0 0
SMALL
GASTEIGER

@<TRIPOS>ATOM
      1 C         141.9623  137.6478  157.9053 C.3     1  UNL1        0.2120
      2 O         140.5930  138.0849  157.4764 O.3     1  UNL1       -0.4344
      3 C         139.9462  138.7856  158.6343 C.2     1  UNL1        0.4089
      4 O         138.5713  139.3851  158.6457 O.2     1  UNL1       -0.2258
      5 N         140.9157  138.7815  159.7789 N.am    1  UNL1       -0.2163
      6 C         140.8250  139.3271  161.1731 C.ar    1  UNL1        0.0933
      7 C         139.5789  140.0303  161.6237 C.ar    1  UNL1        0.0477
      8 C         139.4881  140.5760  163.0179 C.ar    1  UNL1        0.1412
      9 F         138.2421  141.2792  163.4685 F       1  UNL1       -0.2041
     10 C         140.6434  140.4185  163.9617 C.ar    1  UNL1        0.0264
     11 C         141.8894  139.7154  163.5112 C.ar    1  UNL1        0.0401
     12 C         141.9802  139.1697  162.1169 C.ar    1  UNL1        0.1524
     13 O         143.2262  138.4665  161.6663 O.3     1  UNL1       -0.4723
     14 C         143.3170  137.9208  160.2721 C.3     1  UNL1        0.2293
     15 C         142.1617  138.0783  159.3284 C.3     1  UNL1        0.1682
     16 C         140.5526  140.9643  165.3560 C.2     1  UNL1       -0.0208
     17 C         140.5688  140.0302  166.5295 C.2     1  UNL1       -0.0088
     18 C         140.4780  140.5759  167.9237 C.3     1  UNL1        0.1196
     19 N         140.3709  142.0557  168.1444 N.am    1  UNL1       -0.2731
     20 C         140.2801  142.6015  169.5387 C.2     1  UNL1        0.2558
     21 O         140.1731  144.0813  169.7594 O.2     1  UNL1       -0.2721
     22 C         140.3547  142.9898  166.9709 C.3     1  UNL1        0.0985
     23 C         140.4456  142.4441  165.5767 C.3     1  UNL1        0.0476
     24 C         140.2963  141.6674  170.7122 C.3     1  UNL1        0.2232
     25 O         140.4792  142.2087  172.0991 O.3     1  UNL1       -0.3737
     26 H         141.3671  142.5900  172.1829 H       1  UNL1        0.2110
     27 C         142.9575  136.9098  157.0597 C.3     1  UNL1        0.1353
     28 C         141.7805  133.4080  155.6099 C.3     1  UNL1        0.0946
     29 C         141.9133  134.8895  155.8035 C.2     1  UNL1        0.2231
     30 O         141.1347  135.8322  154.9346 O.2     1  UNL1       -0.2751
     31 N         142.8247  135.4283  156.8661 N.am    1  UNL1       -0.3011
     32 H         143.3357  134.8096  157.4364 H       1  UNL1        0.1495
@<TRIPOS>BOND
     1    28    29    1
     2    29    30    2
     3    29    31   am
     4    31    27    1
     5     1    27    1
     6     1     2    1
     7     2     3    1
     8     3     4    2
     9     3     5   am
    10     5     6    1
    11     6     7   ar
    12     7     8   ar
    13     8     9    1
    14     8    10   ar
    15    10    16    1
    16    16    17    2
    17    17    18    1
    18    18    19    1
    19    19    20   am
    20    20    21    2
    21    20    24    1
    22    24    25    1
    23    19    22    1
    24    22    23    1
    25    10    11   ar
    26    11    12   ar
    27    12    13    1
    28    13    14    1
    29    15    14    1
    30    15     1    1
    31    15     5    1
    32    12     6   ar
    33    23    16    1
    34    31    32    1
    35    25    26    1
@<TRIPOS>MOLECULE
*****
 32 35 0 0 0
SMALL
GASTEIGER

@<TRIPOS>ATOM
      1 C         138.7011  142.8862  157.6699 C.3     1  UNL1        0.2120
      2 O         139.5053  144.1507  157.7337 O.3     1  UNL1       -0.4344
      3 C         139.9642  144.3373  159.1496 C.2     1  UNL1        0.4089
      4 O         140.7974  145.4736  159.6639 O.2     1  UNL1       -0.2258
      5 N         139.4435  143.1881  159.9609 N.am    1  UNL1       -0.2163
      6 C         139.5793  142.8424  161.4141 C.ar    1  UNL1        0.0933
      7 C         140.3599  143.7393  162.3287 C.ar    1  UNL1        0.0477
      8 C         140.4957  143.3936  163.7819 C.ar    1  UNL1        0.1412
      9 F         141.2764  144.2905  164.6964 F       1  UNL1       -0.2041
     10 C         139.8509  142.1511  164.3207 C.ar    1  UNL1        0.0264
     11 C         139.0703  141.2542  163.4063 C.ar    1  UNL1        0.0401
     12 C         138.9345  141.5999  161.9530 C.ar    1  UNL1        0.1524
     13 O         138.1538  140.7031  161.0385 O.3     1  UNL1       -0.4723
     14 C         138.0180  141.0487  159.5853 C.3     1  UNL1        0.2293
     15 C         138.6628  142.2913  159.0464 C.3     1  UNL1        0.1682
     16 C         139.9868  141.8054  165.7741 C.2     1  UNL1       -0.0208
     17 C         140.6705  142.7569  166.7106 C.2     1  UNL1       -0.0088
     18 C         140.8063  142.4113  168.1638 C.3     1  UNL1        0.1196
     19 N         140.2584  141.1140  168.6806 N.am    1  UNL1       -0.2731
     20 C         140.3942  140.7684  170.1340 C.2     1  UNL1        0.2558
     21 O         139.8463  139.4712  170.6507 O.2     1  UNL1       -0.2721
     22 C         139.5747  140.1625  167.7441 C.3     1  UNL1        0.0985
     23 C         139.4389  140.5082  166.2909 C.3     1  UNL1        0.0476
     24 C         141.0779  141.7199  171.0705 C.3     1  UNL1        0.2232
     25 O         140.3522  142.2354  172.2777 O.3     1  UNL1       -0.3737
     26 H         139.6091  142.7913  171.9954 H       1  UNL1        0.2110
     27 C         138.0494  142.3165  156.4448 C.3     1  UNL1        0.1353
     28 C         134.4852  140.6316  155.9901 C.3     1  UNL1        0.0946
     29 C         135.9740  140.8086  156.0341 C.2     1  UNL1        0.2231
     30 O         136.8764  139.6546  155.7115 O.2     1  UNL1       -0.2751
     31 N         136.5606  142.1395  156.4008 N.am    1  UNL1       -0.3011
     32 H         135.9684  142.8969  156.6126 H       1  UNL1        0.1495
@<TRIPOS>BOND
     1    28    29    1
     2    29    30    2
     3    29    31   am
     4    31    27    1
     5     1    27    1
     6     1     2    1
     7     2     3    1
     8     3     4    2
     9     3     5   am
    10     5     6    1
    11     6     7   ar
    12     7     8   ar
    13     8     9    1
    14     8    10   ar
    15    10    16    1
    16    16    17    2
    17    17    18    1
    18    18    19    1
    19    19    20   am
    20    20    21    2
    21    20    24    1
    22    24    25    1
    23    19    22    1
    24    22    23    1
    25    10    11   ar
    26    11    12   ar
    27    12    13    1
    28    13    14    1
    29    15    14    1
    30    15     1    1
    31    15     5    1
    32    12     6   ar
    33    23    16    1
    34    31    32    1
    35    25    26    1
@<TRIPOS>MOLECULE
*****
 32 35 0 0 0
SMALL
GASTEIGER

@<TRIPOS>ATOM
      1 C         142.7967  142.7831  158.0262 C.3     1  UNL1        0.2120
      2 O         141.5822  143.6518  157.8835 O.3     1  UNL1       -0.4344
      3 C         140.8856  143.6964  159.2112 C.2     1  UNL1        0.4089
      4 O         139.6261  144.4498  159.5211 O.2     1  UNL1       -0.2258
      5 N         141.6695  142.8553  160.1745 N.am    1  UNL1       -0.2163
      6 C         141.4604  142.5304  161.6238 C.ar    1  UNL1        0.0933
      7 C         140.2793  143.0949  162.3562 C.ar    1  UNL1        0.0477
      8 C         140.0702  142.7700  163.8056 C.ar    1  UNL1        0.1412
      9 F         138.8890  143.3344  164.5379 F       1  UNL1       -0.2041
     10 C         141.0423  141.8807  164.5226 C.ar    1  UNL1        0.0264
     11 C         142.2234  141.3162  163.7904 C.ar    1  UNL1        0.0401
     12 C         142.4325  141.6411  162.3409 C.ar    1  UNL1        0.1524
     13 O         143.6137  141.0767  161.6086 O.3     1  UNL1       -0.4723
     14 C         143.8227  141.4016  160.1593 C.3     1  UNL1        0.2293
     15 C         142.8506  142.2909  159.4422 C.3     1  UNL1        0.1682
     16 C         140.8332  141.5558  165.9721 C.2     1  UNL1       -0.0208
     17 C         141.6944  142.2008  167.0171 C.2     1  UNL1       -0.0088
     18 C         141.4853  141.8760  168.4664 C.3     1  UNL1        0.1196
     19 N         140.4149  140.9060  168.8708 N.am    1  UNL1       -0.2731
     20 C         140.2058  140.5812  170.3202 C.2     1  UNL1        0.2558
     21 O         139.1354  139.6112  170.7246 O.2     1  UNL1       -0.2721
     22 C         139.5536  140.2610  167.8258 C.3     1  UNL1        0.0985
     23 C         139.7628  140.5859  166.3764 C.3     1  UNL1        0.0476
     24 C         141.0670  141.2262  171.3652 C.3     1  UNL1        0.2232
     25 O         140.4757  142.2313  172.3087 O.3     1  UNL1       -0.3737
     26 H         140.2042  143.0195  171.8128 H       1  UNL1        0.2110
     27 C         143.7840  142.4629  156.9433 C.3     1  UNL1        0.1353
     28 C         147.7342  142.4384  156.5626 C.3     1  UNL1        0.0946
     29 C         146.2921  142.0596  156.3988 C.2     1  UNL1        0.2231
     30 O         145.9160  140.8987  155.5265 O.2     1  UNL1       -0.2751
     31 N         145.2261  142.8417  157.1071 N.am    1  UNL1       -0.3011
     32 H         145.4729  143.6037  157.6796 H       1  UNL1        0.1495
@<TRIPOS>BOND
     1    28    29    1
     2    29    30    2
     3    29    31   am
     4    31    27    1
     5     1    27    1
     6     1     2    1
     7     2     3    1
     8     3     4    2
     9     3     5   am
    10     5     6    1
    11     6     7   ar
    12     7     8   ar
    13     8     9    1
    14     8    10   ar
    15    10    16    1
    16    16    17    2
    17    17    18    1
    18    18    19    1
    19    19    20   am
    20    20    21    2
    21    20    24    1
    22    24    25    1
    23    19    22    1
    24    22    23    1
    25    10    11   ar
    26    11    12   ar
    27    12    13    1
    28    13    14    1
    29    15    14    1
    30    15     1    1
    31    15     5    1
    32    12     6   ar
    33    23    16    1
    34    31    32    1
    35    25    26    1
@<TRIPOS>MOLECULE
*****
 32 35 0 0 0
SMALL
GASTEIGER

@<TRIPOS>ATOM
      1 C         139.1679  143.4844  157.2778 C.3     1  UNL1        0.2120
      2 O         140.1609  144.5974  157.1193 O.3     1  UNL1       -0.4344
      3 C         140.8276  144.8162  158.4450 C.2     1  UNL1        0.4089
      4 O         141.8889  145.8340  158.7409 O.2     1  UNL1       -0.2258
      5 N         140.2467  143.8384  159.4230 N.am    1  UNL1       -0.2163
      6 C         140.5192  143.5911  160.8771 C.ar    1  UNL1        0.0933
      7 C         141.5450  144.4141  161.5985 C.ar    1  UNL1        0.0477
      8 C         141.8175  144.1669  163.0527 C.ar    1  UNL1        0.1412
      9 F         142.8433  144.9899  163.7741 F       1  UNL1       -0.2041
     10 C         141.0642  143.0965  163.7855 C.ar    1  UNL1        0.0264
     11 C         140.0385  142.2735  163.0641 C.ar    1  UNL1        0.0401
     12 C         139.7659  142.5207  161.6099 C.ar    1  UNL1        0.1524
     13 O         138.7402  141.6977  160.8886 O.3     1  UNL1       -0.4723
     14 C         138.4677  141.9450  159.4345 C.3     1  UNL1        0.2293
     15 C         139.2209  143.0153  158.7017 C.3     1  UNL1        0.1682
     16 C         141.3368  142.8493  165.2397 C.2     1  UNL1       -0.0208
     17 C         142.6943  142.3880  165.6805 C.2     1  UNL1       -0.0088
     18 C         142.9668  142.1408  167.1346 C.3     1  UNL1        0.1196
     19 N         141.8818  142.3548  168.1480 N.am    1  UNL1       -0.2731
     20 C         142.1543  142.1075  169.6022 C.2     1  UNL1        0.2558
     21 O         141.0693  142.3215  170.6155 O.2     1  UNL1       -0.2721
     22 C         140.5243  142.8160  167.7072 C.3     1  UNL1        0.0985
     23 C         140.2518  143.0632  166.2530 C.3     1  UNL1        0.0476
     24 C         143.5119  141.6463  170.0429 C.3     1  UNL1        0.2232
     25 O         143.6675  140.3220  170.7299 O.3     1  UNL1       -0.3737
     26 H         143.2182  140.3487  171.5892 H       1  UNL1        0.2110
     27 C         138.2781  142.9367  156.2016 C.3     1  UNL1        0.1353
     28 C         138.2581  139.1316  155.0745 C.3     1  UNL1        0.0946
     29 C         137.8879  140.4032  155.7788 C.2     1  UNL1        0.2231
     30 O         136.7573  140.4128  156.7645 O.2     1  UNL1       -0.2751
     31 N         138.6483  141.6651  155.4974 N.am    1  UNL1       -0.3011
     32 H         139.3903  141.6588  154.8505 H       1  UNL1        0.1495
@<TRIPOS>BOND
     1    28    29    1
     2    29    30    2
     3    29    31   am
     4    31    27    1
     5     1    27    1
     6     1     2    1
     7     2     3    1
     8     3     4    2
     9     3     5   am
    10     5     6    1
    11     6     7   ar
    12     7     8   ar
    13     8     9    1
    14     8    10   ar
    15    10    16    1
    16    16    17    2
    17    17    18    1
    18    18    19    1
    19    19    20   am
    20    20    21    2
    21    20    24    1
    22    24    25    1
    23    19    22    1
    24    22    23    1
    25    10    11   ar
    26    11    12   ar
    27    12    13    1
    28    13    14    1
    29    15    14    1
    30    15     1    1
    31    15     5    1
    32    12     6   ar
    33    23    16    1
    34    31    32    1
    35    25    26    1
