@<TRIPOS>MOLECULE
*****
 32 35 0 0 0
SMALL
GASTEIGER

@<TRIPOS>ATOM
      1 C         140.7184  136.8939  163.6759 C.3     1  UNL1        0.0203
      2 C         139.9559  138.1699  163.8780 C.3     1  UNL1        0.0888
      3 N         139.9991  138.8671  165.2054 N.3     1  UNL1       -0.2713
      4 C         138.8399  138.7532  166.1505 C.3     1  UNL1        0.0749
      5 C         138.8831  139.4505  167.4779 C.3     1  UNL1        0.0485
      6 C         140.0855  140.2616  167.8602 C.3     1  UNL1        0.1096
      7 O         139.2421  140.4524  169.0860 O.3     1  UNL1       -0.3826
      8 C         141.2448  140.3755  166.9152 C.3     1  UNL1        0.0485
      9 C         141.2016  139.6782  165.5878 C.3     1  UNL1        0.0749
     10 H         138.4065  139.9709  168.9817 H       1  UNL1        0.2107
     11 C         140.9951  141.1390  168.6683 C.ar    1  UNL1        0.0019
     12 C         140.5031  142.4606  169.1793 C.ar    1  UNL1        0.0003
     13 C         141.4126  143.3380  169.9874 C.ar    1  UNL1        0.0294
     14 C         142.8142  142.8937  170.2843 C.ar    1  UNL1        0.1401
     15 F         143.7237  143.7711  171.0923 F       1  UNL1       -0.2042
     16 C         143.3062  141.5721  169.7733 C.ar    1  UNL1        0.0294
     17 C         142.3967  140.6947  168.9652 C.ar    1  UNL1        0.0003
     18 C         139.1504  138.7485  162.7528 C.3     1  UNL1        0.1472
     19 O         138.4864  137.8398  161.7611 O.3     1  UNL1       -0.3787
     20 H         138.0099  138.3712  161.1042 H       1  UNL1        0.2108
     21 C         139.0087  140.2359  162.6192 C.ar    1  UNL1        0.0053
     22 C         137.7084  140.8994  162.9640 C.ar    1  UNL1       -0.0007
     23 C         137.5669  142.3867  162.8304 C.ar    1  UNL1        0.0141
     24 C         138.7256  143.2104  162.3520 C.ar    1  UNL1        0.0462
     25 C         140.0259  142.5469  162.0073 C.ar    1  UNL1       -0.0085
     26 C         140.1675  141.0596  162.1409 C.ar    1  UNL1       -0.0049
     27 C         141.1846  143.3706  161.5290 C.3     1  UNL1        0.0372
     28 C         141.0430  144.8579  161.3954 C.3     1  UNL1        0.0901
     29 C         139.7427  145.5215  161.7401 C.2     1  UNL1        0.2264
     30 O         139.6011  147.0088  161.6066 O.2     1  UNL1       -0.2748
     31 N         138.5839  144.6978  162.2185 N.am    1  UNL1       -0.2842
     32 H         137.7305  145.1333  162.4447 H       1  UNL1        0.1548
@<TRIPOS>BOND
     1     1     2    1
     2     2    18    1
     3    18    19    1
     4    18    21    1
     5    21    22   ar
     6    22    23   ar
     7    23    24   ar
     8    24    25   ar
     9    25    26   ar
    10    25    27    1
    11    27    28    1
    12    28    29    1
    13    29    30    2
    14    29    31   am
    15     2     3    1
    16     3     4    1
    17     4     5    1
    18     5     6    1
    19     6     7    1
    20     6    11    1
    21    11    12   ar
    22    12    13   ar
    23    13    14   ar
    24    14    15    1
    25    14    16   ar
    26    16    17   ar
    27     6     8    1
    28     8     9    1
    29    26    21   ar
    30     9     3    1
    31    31    24    1
    32    17    11   ar
    33    19    20    1
    34    31    32    1
    35     7    10    1
@<TRIPOS>MOLECULE
*****
 32 35 0 0 0
SMALL
GASTEIGER

@<TRIPOS>ATOM
      1 C         138.8100  138.8375  162.8229 C.3     1  UNL1        0.0203
      2 C         138.5752  140.1151  163.5730 C.3     1  UNL1        0.0888
      3 N         139.0378  140.2465  164.9939 N.3     1  UNL1       -0.2713
      4 C         138.5068  139.3169  166.0445 C.3     1  UNL1        0.0749
      5 C         138.9693  139.4482  167.4653 C.3     1  UNL1        0.0485
      6 C         139.9629  140.5092  167.8355 C.3     1  UNL1        0.1096
      7 O         139.7514  139.8710  169.1765 O.3     1  UNL1       -0.3826
      8 C         140.4940  141.4388  166.7849 C.3     1  UNL1        0.0485
      9 C         140.0314  141.3075  165.3641 C.3     1  UNL1        0.0749
     10 H         139.1135  139.1452  169.0922 H       1  UNL1        0.2107
     11 C         140.8831  141.3485  168.6715 C.ar    1  UNL1        0.0019
     12 C         140.4121  142.6655  169.2133 C.ar    1  UNL1        0.0003
     13 C         141.3322  143.5049  170.0493 C.ar    1  UNL1        0.0294
     14 C         142.7235  143.0272  170.3434 C.ar    1  UNL1        0.1401
     15 F         143.6436  143.8665  171.1793 F       1  UNL1       -0.2042
     16 C         143.1945  141.7102  169.8015 C.ar    1  UNL1        0.0294
     17 C         142.2743  140.8708  168.9656 C.ar    1  UNL1        0.0003
     18 C         137.8779  141.2613  162.9023 C.3     1  UNL1        0.1472
     19 O         136.3819  141.3605  162.9497 O.3     1  UNL1       -0.3787
     20 H         136.0951  142.1539  162.4710 H       1  UNL1        0.2108
     21 C         138.6765  142.3085  162.1842 C.ar    1  UNL1        0.0053
     22 C         138.9061  143.6460  162.8231 C.ar    1  UNL1       -0.0007
     23 C         139.7047  144.6931  162.1050 C.ar    1  UNL1        0.0141
     24 C         140.2738  144.4027  160.7479 C.ar    1  UNL1        0.0462
     25 C         140.0442  143.0652  160.1089 C.ar    1  UNL1       -0.0085
     26 C         139.2456  142.0181  160.8270 C.ar    1  UNL1       -0.0049
     27 C         140.6133  142.7748  158.7517 C.3     1  UNL1        0.0372
     28 C         141.4119  143.8218  158.0336 C.3     1  UNL1        0.0901
     29 C         141.6415  145.1594  158.6726 C.2     1  UNL1        0.2264
     30 O         142.4401  146.2065  157.9544 O.2     1  UNL1       -0.2748
     31 N         141.0724  145.4499  160.0297 N.am    1  UNL1       -0.2842
     32 H         141.2231  146.3277  160.4491 H       1  UNL1        0.1548
@<TRIPOS>BOND
     1     1     2    1
     2     2    18    1
     3    18    19    1
     4    18    21    1
     5    21    22   ar
     6    22    23   ar
     7    23    24   ar
     8    24    25   ar
     9    25    26   ar
    10    25    27    1
    11    27    28    1
    12    28    29    1
    13    29    30    2
    14    29    31   am
    15     2     3    1
    16     3     4    1
    17     4     5    1
    18     5     6    1
    19     6     7    1
    20     6    11    1
    21    11    12   ar
    22    12    13   ar
    23    13    14   ar
    24    14    15    1
    25    14    16   ar
    26    16    17   ar
    27     6     8    1
    28     8     9    1
    29    26    21   ar
    30     9     3    1
    31    31    24    1
    32    17    11   ar
    33    19    20    1
    34    31    32    1
    35     7    10    1
@<TRIPOS>MOLECULE
*****
 32 35 0 0 0
SMALL
GASTEIGER

@<TRIPOS>ATOM
      1 C         144.9949  139.4958  164.6060 C.3     1  UNL1        0.0203
      2 C         143.7718  138.8359  165.1706 C.3     1  UNL1        0.0888
      3 N         142.5671  138.6216  164.3031 N.3     1  UNL1       -0.2713
      4 C         141.6816  137.4323  164.5298 C.3     1  UNL1        0.0749
      5 C         140.4769  137.2179  163.6622 C.3     1  UNL1        0.0485
      6 C         140.1576  138.1929  162.5679 C.3     1  UNL1        0.1096
      7 O         139.0246  137.2255  162.3936 O.3     1  UNL1       -0.3826
      8 C         141.0431  139.3823  162.3412 C.3     1  UNL1        0.0485
      9 C         142.2479  139.5966  163.2087 C.3     1  UNL1        0.0749
     10 H         139.0998  136.5173  163.0522 H       1  UNL1        0.2107
     11 C         139.4449  138.8319  161.4130 C.ar    1  UNL1        0.0019
     12 C         140.1488  139.0042  160.0998 C.ar    1  UNL1        0.0003
     13 C         139.4361  139.6432  158.9449 C.ar    1  UNL1        0.0294
     14 C         138.0194  140.1099  159.1034 C.ar    1  UNL1        0.1401
     15 F         137.3067  140.7489  157.9485 F       1  UNL1       -0.2042
     16 C         137.3154  139.9376  160.4166 C.ar    1  UNL1        0.0294
     17 C         138.0282  139.2986  161.5715 C.ar    1  UNL1        0.0003
     18 C         143.7536  138.3904  166.6028 C.3     1  UNL1        0.1472
     19 O         144.5285  137.1759  167.0204 O.3     1  UNL1       -0.3787
     20 H         144.4099  137.0279  167.9717 H       1  UNL1        0.2108
     21 C         142.9604  139.1595  167.6175 C.ar    1  UNL1        0.0053
     22 C         142.7574  138.5977  168.9934 C.ar    1  UNL1       -0.0007
     23 C         141.9643  139.3667  170.0079 C.ar    1  UNL1        0.0141
     24 C         141.3740  140.6976  169.6466 C.ar    1  UNL1        0.0462
     25 C         141.5770  141.2593  168.2707 C.ar    1  UNL1       -0.0085
     26 C         142.3701  140.4903  167.2561 C.ar    1  UNL1       -0.0049
     27 C         140.9867  142.5901  167.9094 C.3     1  UNL1        0.0372
     28 C         140.1936  143.3592  168.9239 C.3     1  UNL1        0.0901
     29 C         139.9906  142.7974  170.2999 C.2     1  UNL1        0.2264
     30 O         139.1974  143.5665  171.3145 O.2     1  UNL1       -0.2748
     31 N         140.5808  141.4666  170.6613 N.am    1  UNL1       -0.2842
     32 H         140.4476  141.0979  171.5644 H       1  UNL1        0.1548
@<TRIPOS>BOND
     1     1     2    1
     2     2    18    1
     3    18    19    1
     4    18    21    1
     5    21    22   ar
     6    22    23   ar
     7    23    24   ar
     8    24    25   ar
     9    25    26   ar
    10    25    27    1
    11    27    28    1
    12    28    29    1
    13    29    30    2
    14    29    31   am
    15     2     3    1
    16     3     4    1
    17     4     5    1
    18     5     6    1
    19     6     7    1
    20     6    11    1
    21    11    12   ar
    22    12    13   ar
    23    13    14   ar
    24    14    15    1
    25    14    16   ar
    26    16    17   ar
    27     6     8    1
    28     8     9    1
    29    26    21   ar
    30     9     3    1
    31    31    24    1
    32    17    11   ar
    33    19    20    1
    34    31    32    1
    35     7    10    1
@<TRIPOS>MOLECULE
*****
 32 35 0 0 0
SMALL
GASTEIGER

@<TRIPOS>ATOM
      1 C         139.6596  137.5896  164.2402 C.3     1  UNL1        0.0203
      2 C         139.0263  138.8075  164.8449 C.3     1  UNL1        0.0888
      3 N         138.8367  140.0438  164.0169 N.3     1  UNL1       -0.2713
      4 C         137.5464  140.8051  164.0904 C.3     1  UNL1        0.0749
      5 C         137.3569  142.0414  163.2623 C.3     1  UNL1        0.0485
      6 C         138.4577  142.5164  162.3609 C.3     1  UNL1        0.1096
      7 O         137.4250  143.5698  162.0884 O.3     1  UNL1       -0.3826
      8 C         139.7480  141.7551  162.2874 C.3     1  UNL1        0.0485
      9 C         139.9376  140.5188  163.1154 C.3     1  UNL1        0.0749
     10 H         136.6320  143.3895  162.6170 H       1  UNL1        0.2107
     11 C         139.1999  143.3572  161.3648 C.ar    1  UNL1        0.0019
     12 C         139.8380  144.6440  161.7970 C.ar    1  UNL1        0.0003
     13 C         140.5802  145.4849  160.8010 C.ar    1  UNL1        0.0294
     14 C         140.6842  145.0388  159.3725 C.ar    1  UNL1        0.1401
     15 F         141.4264  145.8796  158.3765 F       1  UNL1       -0.2042
     16 C         140.0461  143.7520  158.9403 C.ar    1  UNL1        0.0294
     17 C         139.3039  142.9112  159.9364 C.ar    1  UNL1        0.0003
     18 C         138.5825  138.7890  166.2776 C.3     1  UNL1        0.1472
     19 O         137.4378  137.9151  166.6970 O.3     1  UNL1       -0.3787
     20 H         137.2816  138.0213  167.6485 H       1  UNL1        0.2108
     21 C         139.2834  139.6445  167.2910 C.ar    1  UNL1        0.0053
     22 C         138.6501  139.8955  168.6274 C.ar    1  UNL1       -0.0007
     23 C         139.3510  140.7510  169.6407 C.ar    1  UNL1        0.0141
     24 C         140.6852  141.3555  169.3176 C.ar    1  UNL1        0.0462
     25 C         141.3186  141.1046  167.9813 C.ar    1  UNL1       -0.0085
     26 C         140.6176  140.2491  166.9680 C.ar    1  UNL1       -0.0049
     27 C         142.6528  141.7091  167.6582 C.3     1  UNL1        0.0372
     28 C         143.3537  142.5646  168.6715 C.3     1  UNL1        0.0901
     29 C         142.7204  142.8156  170.0079 C.2     1  UNL1        0.2264
     30 O         143.4213  143.6710  171.0212 O.2     1  UNL1       -0.2748
     31 N         141.3862  142.2110  170.3310 N.am    1  UNL1       -0.2842
     32 H         140.9705  142.3757  171.2081 H       1  UNL1        0.1548
@<TRIPOS>BOND
     1     1     2    1
     2     2    18    1
     3    18    19    1
     4    18    21    1
     5    21    22   ar
     6    22    23   ar
     7    23    24   ar
     8    24    25   ar
     9    25    26   ar
    10    25    27    1
    11    27    28    1
    12    28    29    1
    13    29    30    2
    14    29    31   am
    15     2     3    1
    16     3     4    1
    17     4     5    1
    18     5     6    1
    19     6     7    1
    20     6    11    1
    21    11    12   ar
    22    12    13   ar
    23    13    14   ar
    24    14    15    1
    25    14    16   ar
    26    16    17   ar
    27     6     8    1
    28     8     9    1
    29    26    21   ar
    30     9     3    1
    31    31    24    1
    32    17    11   ar
    33    19    20    1
    34    31    32    1
    35     7    10    1
@<TRIPOS>MOLECULE
*****
 32 35 0 0 0
SMALL
GASTEIGER

@<TRIPOS>ATOM
      1 C         144.1717  138.8100  162.4080 C.3     1  UNL1        0.0203
      2 C         144.2171  140.0494  163.2517 C.3     1  UNL1        0.0888
      3 N         143.6524  140.0319  164.6413 N.3     1  UNL1       -0.2713
      4 C         143.8826  138.8454  165.5295 C.3     1  UNL1        0.0749
      5 C         143.3179  138.8279  166.9190 C.3     1  UNL1        0.0485
      6 C         142.5229  139.9969  167.4203 C.3     1  UNL1        0.1096
      7 O         142.4708  139.1092  168.6284 O.3     1  UNL1       -0.3826
      8 C         142.2926  141.1835  166.5320 C.3     1  UNL1        0.0485
      9 C         142.8573  141.2010  165.1425 C.3     1  UNL1        0.0749
     10 H         142.9573  138.2896  168.4486 H       1  UNL1        0.2107
     11 C         141.7098  140.8577  168.3411 C.ar    1  UNL1        0.0019
     12 C         140.3944  140.3622  168.8646 C.ar    1  UNL1        0.0003
     13 C         139.5812  141.2229  169.7854 C.ar    1  UNL1        0.0294
     14 C         140.0836  142.5793  170.1828 C.ar    1  UNL1        0.1401
     15 F         139.2705  143.4400  171.1036 F       1  UNL1       -0.2042
     16 C         141.3990  143.0749  169.6594 C.ar    1  UNL1        0.0294
     17 C         142.2122  142.2141  168.7385 C.ar    1  UNL1        0.0003
     18 C         144.8272  141.3063  162.7059 C.3     1  UNL1        0.1472
     19 O         146.1608  141.7729  163.2098 O.3     1  UNL1       -0.3787
     20 H         146.4083  142.5941  162.7567 H       1  UNL1        0.2108
     21 C         144.1037  142.0967  161.6561 C.ar    1  UNL1        0.0053
     22 C         144.5143  141.9855  160.2177 C.ar    1  UNL1       -0.0007
     23 C         143.7908  142.7759  159.1681 C.ar    1  UNL1        0.0141
     24 C         142.6568  143.6774  159.5568 C.ar    1  UNL1        0.0462
     25 C         142.2462  143.7887  160.9952 C.ar    1  UNL1       -0.0085
     26 C         142.9697  142.9983  162.0449 C.ar    1  UNL1       -0.0049
     27 C         141.1122  144.6903  161.3839 C.3     1  UNL1        0.0372
     28 C         140.3887  145.4806  160.3343 C.3     1  UNL1        0.0901
     29 C         140.7992  145.3694  158.8958 C.2     1  UNL1        0.2264
     30 O         140.0758  146.1598  157.8461 O.2     1  UNL1       -0.2748
     31 N         141.9333  144.4678  158.5070 N.am    1  UNL1       -0.2842
     32 H         142.2027  144.3948  157.5630 H       1  UNL1        0.1548
@<TRIPOS>BOND
     1     1     2    1
     2     2    18    1
     3    18    19    1
     4    18    21    1
     5    21    22   ar
     6    22    23   ar
     7    23    24   ar
     8    24    25   ar
     9    25    26   ar
    10    25    27    1
    11    27    28    1
    12    28    29    1
    13    29    30    2
    14    29    31   am
    15     2     3    1
    16     3     4    1
    17     4     5    1
    18     5     6    1
    19     6     7    1
    20     6    11    1
    21    11    12   ar
    22    12    13   ar
    23    13    14   ar
    24    14    15    1
    25    14    16   ar
    26    16    17   ar
    27     6     8    1
    28     8     9    1
    29    26    21   ar
    30     9     3    1
    31    31    24    1
    32    17    11   ar
    33    19    20    1
    34    31    32    1
    35     7    10    1
@<TRIPOS>MOLECULE
*****
 32 35 0 0 0
SMALL
GASTEIGER

@<TRIPOS>ATOM
      1 C         137.7389  140.7239  162.5982 C.3     1  UNL1        0.0203
      2 C         138.4981  139.6498  163.3194 C.3     1  UNL1        0.0888
      3 N         138.9153  139.8548  164.7455 N.3     1  UNL1       -0.2713
      4 C         138.2721  139.0528  165.8378 C.3     1  UNL1        0.0749
      5 C         138.6893  139.2578  167.2639 C.3     1  UNL1        0.0485
      6 C         139.7496  140.2649  167.5978 C.3     1  UNL1        0.1096
      7 O         139.4369  139.7505  168.9718 O.3     1  UNL1       -0.3826
      8 C         140.3928  141.0670  166.5056 C.3     1  UNL1        0.0485
      9 C         139.9756  140.8620  165.0794 C.3     1  UNL1        0.0749
     10 H         138.7468  139.0715  168.9136 H       1  UNL1        0.2107
     11 C         140.7013  141.0934  168.4089 C.ar    1  UNL1        0.0019
     12 C         142.0837  140.5853  168.6928 C.ar    1  UNL1        0.0003
     13 C         143.0355  141.4137  169.5039 C.ar    1  UNL1        0.0294
     14 C         142.6047  142.7504  170.0311 C.ar    1  UNL1        0.1401
     15 F         143.5565  143.5788  170.8422 F       1  UNL1       -0.2042
     16 C         141.2223  143.2585  169.7472 C.ar    1  UNL1        0.0294
     17 C         140.2705  142.4300  168.9361 C.ar    1  UNL1        0.0003
     18 C         138.8402  138.3708  162.6143 C.3     1  UNL1        0.1472
     19 O         138.0726  137.1184  162.9183 O.3     1  UNL1       -0.3787
     20 H         138.4182  136.3889  162.3804 H       1  UNL1        0.2108
     21 C         139.9499  138.3441  161.6053 C.ar    1  UNL1        0.0053
     22 C         141.3494  138.0219  162.0381 C.ar    1  UNL1       -0.0007
     23 C         142.4590  137.9953  161.0291 C.ar    1  UNL1        0.0141
     24 C         142.1690  138.2908  159.5874 C.ar    1  UNL1        0.0462
     25 C         140.7694  138.6131  159.1547 C.ar    1  UNL1       -0.0085
     26 C         139.6599  138.6397  160.1636 C.ar    1  UNL1       -0.0049
     27 C         140.4794  138.9087  157.7129 C.3     1  UNL1        0.0372
     28 C         141.5890  138.8820  156.7040 C.3     1  UNL1        0.0901
     29 C         142.9887  138.5598  157.1367 C.2     1  UNL1        0.2264
     30 O         144.0983  138.5331  156.1277 O.2     1  UNL1       -0.2748
     31 N         143.2787  138.2642  158.5784 N.am    1  UNL1       -0.2842
     32 H         144.1973  138.0527  158.8624 H       1  UNL1        0.1548
@<TRIPOS>BOND
     1     1     2    1
     2     2    18    1
     3    18    19    1
     4    18    21    1
     5    21    22   ar
     6    22    23   ar
     7    23    24   ar
     8    24    25   ar
     9    25    26   ar
    10    25    27    1
    11    27    28    1
    12    28    29    1
    13    29    30    2
    14    29    31   am
    15     2     3    1
    16     3     4    1
    17     4     5    1
    18     5     6    1
    19     6     7    1
    20     6    11    1
    21    11    12   ar
    22    12    13   ar
    23    13    14   ar
    24    14    15    1
    25    14    16   ar
    26    16    17   ar
    27     6     8    1
    28     8     9    1
    29    26    21   ar
    30     9     3    1
    31    31    24    1
    32    17    11   ar
    33    19    20    1
    34    31    32    1
    35     7    10    1
@<TRIPOS>MOLECULE
*****
 32 35 0 0 0
SMALL
GASTEIGER

@<TRIPOS>ATOM
      1 C         138.7564  138.3048  162.6458 C.3     1  UNL1        0.0203
      2 C         138.4220  139.5982  163.3280 C.3     1  UNL1        0.0888
      3 N         138.8393  139.8256  164.7507 N.3     1  UNL1       -0.2713
      4 C         138.2294  139.0087  165.8509 C.3     1  UNL1        0.0749
      5 C         138.6468  139.2360  167.2736 C.3     1  UNL1        0.0485
      6 C         139.6741  140.2804  167.5961 C.3     1  UNL1        0.1096
      7 O         139.3863  139.7638  168.9747 O.3     1  UNL1       -0.3826
      8 C         140.2841  141.0974  166.4958 C.3     1  UNL1        0.0485
      9 C         139.8667  140.8700  165.0731 C.3     1  UNL1        0.0749
     10 H         138.7192  139.0614  168.9240 H       1  UNL1        0.2107
     11 C         140.6015  141.1453  168.3973 C.ar    1  UNL1        0.0019
     12 C         142.0861  141.0005  168.2395 C.ar    1  UNL1        0.0003
     13 C         143.0134  141.8654  169.0406 C.ar    1  UNL1        0.0294
     14 C         142.4561  142.8752  169.9998 C.ar    1  UNL1        0.1401
     15 F         143.3835  143.7401  170.8009 F       1  UNL1       -0.2042
     16 C         140.9715  143.0201  170.1576 C.ar    1  UNL1        0.0294
     17 C         140.0442  142.1551  169.3564 C.ar    1  UNL1        0.0003
     18 C         137.6701  140.6642  162.5874 C.3     1  UNL1        0.1472
     19 O         136.5101  141.3552  163.2407 O.3     1  UNL1       -0.3787
     20 H         136.1391  142.0113  162.6302 H       1  UNL1        0.2108
     21 C         138.0784  141.0391  161.1936 C.ar    1  UNL1        0.0053
     22 C         137.7616  140.1246  160.0476 C.ar    1  UNL1       -0.0007
     23 C         138.1699  140.4996  158.6539 C.ar    1  UNL1        0.0141
     24 C         138.8948  141.7891  158.4060 C.ar    1  UNL1        0.0462
     25 C         139.2115  142.7037  159.5519 C.ar    1  UNL1       -0.0085
     26 C         138.8033  142.3287  160.9457 C.ar    1  UNL1       -0.0049
     27 C         139.9365  143.9933  159.3041 C.3     1  UNL1        0.0372
     28 C         140.3447  144.3683  157.9103 C.3     1  UNL1        0.0901
     29 C         140.0280  143.4537  156.7643 C.2     1  UNL1        0.2264
     30 O         140.4362  143.8287  155.3705 O.2     1  UNL1       -0.2748
     31 N         139.3030  142.1641  157.0121 N.am    1  UNL1       -0.2842
     32 H         139.0952  141.5638  156.2600 H       1  UNL1        0.1548
@<TRIPOS>BOND
     1     1     2    1
     2     2    18    1
     3    18    19    1
     4    18    21    1
     5    21    22   ar
     6    22    23   ar
     7    23    24   ar
     8    24    25   ar
     9    25    26   ar
    10    25    27    1
    11    27    28    1
    12    28    29    1
    13    29    30    2
    14    29    31   am
    15     2     3    1
    16     3     4    1
    17     4     5    1
    18     5     6    1
    19     6     7    1
    20     6    11    1
    21    11    12   ar
    22    12    13   ar
    23    13    14   ar
    24    14    15    1
    25    14    16   ar
    26    16    17   ar
    27     6     8    1
    28     8     9    1
    29    26    21   ar
    30     9     3    1
    31    31    24    1
    32    17    11   ar
    33    19    20    1
    34    31    32    1
    35     7    10    1
@<TRIPOS>MOLECULE
*****
 32 35 0 0 0
SMALL
GASTEIGER

@<TRIPOS>ATOM
      1 C         145.3893  141.1058  163.6623 C.3     1  UNL1        0.0203
      2 C         144.2039  140.7799  162.8028 C.3     1  UNL1        0.0888
      3 N         143.4772  141.8756  162.0807 N.3     1  UNL1       -0.2713
      4 C         143.3560  143.2338  162.7056 C.3     1  UNL1        0.0749
      5 C         142.6293  144.3294  161.9834 C.3     1  UNL1        0.0485
      6 C         142.0238  144.0669  160.6365 C.3     1  UNL1        0.1096
      7 O         141.6468  145.5078  160.8151 O.3     1  UNL1       -0.3826
      8 C         142.1450  142.7086  160.0115 C.3     1  UNL1        0.0485
      9 C         142.8717  141.6130  160.7336 C.3     1  UNL1        0.0749
     10 H         141.9810  145.8260  161.6683 H       1  UNL1        0.2107
     11 C         141.2874  144.3047  159.3514 C.ar    1  UNL1        0.0019
     12 C         140.1828  143.3783  158.9375 C.ar    1  UNL1        0.0003
     13 C         139.4463  143.6161  157.6526 C.ar    1  UNL1        0.0294
     14 C         139.8147  144.7805  156.7815 C.ar    1  UNL1        0.1401
     15 F         139.0782  145.0182  155.4965 F       1  UNL1       -0.2042
     16 C         140.9193  145.7069  157.1954 C.ar    1  UNL1        0.0294
     17 C         141.6557  145.4691  158.4804 C.ar    1  UNL1        0.0003
     18 C         143.7452  139.3584  162.6654 C.3     1  UNL1        0.1472
     19 O         144.5514  138.3849  161.8577 O.3     1  UNL1       -0.3787
     20 H         144.1185  137.5170  161.8712 H       1  UNL1        0.2108
     21 C         142.4803  138.9103  163.3359 C.ar    1  UNL1        0.0053
     22 C         141.7324  137.7219  162.8085 C.ar    1  UNL1       -0.0007
     23 C         140.4675  137.2739  163.4789 C.ar    1  UNL1        0.0141
     24 C         139.9507  138.0143  164.6767 C.ar    1  UNL1        0.0462
     25 C         140.6987  139.2027  165.2041 C.ar    1  UNL1       -0.0085
     26 C         141.9635  139.6507  164.5337 C.ar    1  UNL1       -0.0049
     27 C         140.1819  139.9431  166.4019 C.3     1  UNL1        0.0372
     28 C         138.9171  139.4951  167.0723 C.3     1  UNL1        0.0901
     29 C         138.1690  138.3066  166.5449 C.2     1  UNL1        0.2264
     30 O         136.9042  137.8586  167.2153 O.2     1  UNL1       -0.2748
     31 N         138.6859  137.5662  165.3471 N.am    1  UNL1       -0.2842
     32 H         138.1949  136.7862  165.0010 H       1  UNL1        0.1548
@<TRIPOS>BOND
     1     1     2    1
     2     2    18    1
     3    18    19    1
     4    18    21    1
     5    21    22   ar
     6    22    23   ar
     7    23    24   ar
     8    24    25   ar
     9    25    26   ar
    10    25    27    1
    11    27    28    1
    12    28    29    1
    13    29    30    2
    14    29    31   am
    15     2     3    1
    16     3     4    1
    17     4     5    1
    18     5     6    1
    19     6     7    1
    20     6    11    1
    21    11    12   ar
    22    12    13   ar
    23    13    14   ar
    24    14    15    1
    25    14    16   ar
    26    16    17   ar
    27     6     8    1
    28     8     9    1
    29    26    21   ar
    30     9     3    1
    31    31    24    1
    32    17    11   ar
    33    19    20    1
    34    31    32    1
    35     7    10    1
@<TRIPOS>MOLECULE
*****
 32 35 0 0 0
SMALL
GASTEIGER

@<TRIPOS>ATOM
      1 C         138.9213  138.9183  161.9191 C.3     1  UNL1        0.0203
      2 C         138.8547  140.3520  162.3553 C.3     1  UNL1        0.0888
      3 N         139.6586  141.3933  161.6346 N.3     1  UNL1       -0.2713
      4 C         140.9395  141.8973  162.2305 C.3     1  UNL1        0.0749
      5 C         141.7434  142.9386  161.5098 C.3     1  UNL1        0.0485
      6 C         141.2664  143.4759  160.1931 C.3     1  UNL1        0.1096
      7 O         142.5347  144.2612  160.3508 O.3     1  UNL1       -0.3826
      8 C         139.9855  142.9719  159.5971 C.3     1  UNL1        0.0485
      9 C         139.1816  141.9306  160.3178 C.3     1  UNL1        0.0749
     10 H         142.9671  144.0134  161.1830 H       1  UNL1        0.2107
     11 C         141.2299  144.2859  158.9311 C.ar    1  UNL1        0.0019
     12 C         142.2098  144.0049  157.8309 C.ar    1  UNL1        0.0003
     13 C         142.1733  144.8149  156.5689 C.ar    1  UNL1        0.0294
     14 C         141.1566  145.9060  156.4072 C.ar    1  UNL1        0.1401
     15 F         141.1201  146.7160  155.1453 F       1  UNL1       -0.2042
     16 C         140.1767  146.1870  157.5075 C.ar    1  UNL1        0.0294
     17 C         140.2133  145.3770  158.7695 C.ar    1  UNL1        0.0003
     18 C         137.9843  140.7443  163.5122 C.3     1  UNL1        0.1472
     19 O         136.6342  141.3488  163.2638 O.3     1  UNL1       -0.3787
     20 H         136.2056  141.5425  164.1122 H       1  UNL1        0.2108
     21 C         138.4641  140.5322  164.9176 C.ar    1  UNL1        0.0053
     22 C         138.0281  139.3186  165.6837 C.ar    1  UNL1       -0.0007
     23 C         138.5079  139.1066  167.0890 C.ar    1  UNL1        0.0141
     24 C         139.4235  140.1081  167.7281 C.ar    1  UNL1        0.0462
     25 C         139.8594  141.3217  166.9619 C.ar    1  UNL1       -0.0085
     26 C         139.3797  141.5338  165.5567 C.ar    1  UNL1       -0.0049
     27 C         140.7751  142.3233  167.6010 C.3     1  UNL1        0.0372
     28 C         141.2548  142.1113  169.0063 C.3     1  UNL1        0.0901
     29 C         140.8189  140.8976  169.7726 C.2     1  UNL1        0.2264
     30 O         141.2986  140.6855  171.1778 O.2     1  UNL1       -0.2748
     31 N         139.9033  139.8960  169.1335 N.am    1  UNL1       -0.2842
     32 H         139.6171  139.0995  169.6363 H       1  UNL1        0.1548
@<TRIPOS>BOND
     1     1     2    1
     2     2    18    1
     3    18    19    1
     4    18    21    1
     5    21    22   ar
     6    22    23   ar
     7    23    24   ar
     8    24    25   ar
     9    25    26   ar
    10    25    27    1
    11    27    28    1
    12    28    29    1
    13    29    30    2
    14    29    31   am
    15     2     3    1
    16     3     4    1
    17     4     5    1
    18     5     6    1
    19     6     7    1
    20     6    11    1
    21    11    12   ar
    22    12    13   ar
    23    13    14   ar
    24    14    15    1
    25    14    16   ar
    26    16    17   ar
    27     6     8    1
    28     8     9    1
    29    26    21   ar
    30     9     3    1
    31    31    24    1
    32    17    11   ar
    33    19    20    1
    34    31    32    1
    35     7    10    1
