@<TRIPOS>MOLECULE
*****
 32 36 0 0 0
SMALL
GASTEIGER

@<TRIPOS>ATOM
      1 C         143.4684  142.6308  162.9460 C.ar    1  UNL1        0.0677
      2 C         144.9541  142.6666  162.7428 C.ar    1  UNL1        0.0162
      3 C         145.8259  141.6379  163.3999 C.ar    1  UNL1        0.0029
      4 C         145.2119  140.5734  164.2601 C.ar    1  UNL1        0.0188
      5 C         143.7262  140.5377  164.4633 C.ar    1  UNL1        0.0801
      6 C         142.8545  141.5663  163.8062 C.ar    1  UNL1        0.1120
      7 N         141.4321  141.2801  164.1871 N.ar    1  UNL1       -0.2256
      8 C         141.4248  140.0745  165.0795 C.ar    1  UNL1        0.1439
      9 N         142.8427  139.6157  165.2502 N.ar    1  UNL1       -0.3094
     10 C         143.2972  138.4410  166.0648 C.3     1  UNL1        0.1319
     11 C         140.2125  139.4393  165.6935 C.ar    1  UNL1        0.0343
     12 C         139.6263  140.0045  166.9531 C.ar    1  UNL1        0.0053
     13 C         138.4141  139.3692  167.5670 C.ar    1  UNL1        0.0297
     14 C         137.7881  138.1688  166.9213 C.ar    1  UNL1        0.1401
     15 F         136.5758  137.5335  167.5353 F       1  UNL1       -0.2042
     16 C         138.3743  137.6035  165.6616 C.ar    1  UNL1        0.0297
     17 C         139.5865  138.2388  165.0477 C.ar    1  UNL1        0.0053
     18 N         142.5965  143.6595  162.2889 N.pl3   1  UNL1       -0.3113
     19 H         142.7050  144.6121  162.5126 H       1  UNL1        0.1523
     20 C         139.4852  142.3914  159.2954 C.ar    1  UNL1        0.0929
     21 C         140.9348  142.4071  158.9096 C.ar    1  UNL1        0.0211
     22 C         141.9719  142.8299  159.9074 C.ar    1  UNL1        0.0162
     23 C         141.5594  143.2368  161.2911 C.ar    1  UNL1        0.0507
     24 C         140.1100  143.2210  161.6768 C.ar    1  UNL1        0.0457
     25 C         139.0729  142.7983  160.6789 C.ar    1  UNL1        0.1574
     26 F         137.6234  142.7825  161.0647 F       1  UNL1       -0.2026
     27 C         136.1368  142.4241  155.2127 C.3     1  UNL1        0.0538
     28 C         136.9090  141.9837  156.4209 C.ar    1  UNL1        0.0786
     29 C         137.9305  142.7970  157.1592 C.ar    1  UNL1        0.0963
     30 N         138.4481  141.9686  158.2975 N.ar    1  UNL1       -0.2846
     31 C         137.7465  140.6433  158.2628 C.ar    1  UNL1        0.1826
     32 N         136.7953  140.6526  157.1030 N.ar    1  UNL1       -0.2280
@<TRIPOS>BOND
     1    27    28    1
     2    28    29   ar
     3    29    30   ar
     4    30    20    1
     5    20    21   ar
     6    21    22   ar
     7    22    23   ar
     8    23    18    1
     9    18     1    1
    10     1     2   ar
    11     2     3   ar
    12     3     4   ar
    13     4     5   ar
    14     5     6   ar
    15     6     7   ar
    16     7     8   ar
    17     8    11    1
    18    11    12   ar
    19    12    13   ar
    20    13    14   ar
    21    14    15    1
    22    14    16   ar
    23    16    17   ar
    24     8     9   ar
    25     9    10    1
    26    23    24   ar
    27    24    25   ar
    28    25    26    1
    29    30    31   ar
    30    31    32   ar
    31    32    28   ar
    32    25    20   ar
    33     6     1   ar
    34    17    11   ar
    35     9     5   ar
    36    18    19    1
@<TRIPOS>MOLECULE
*****
 32 36 0 0 0
SMALL
GASTEIGER

@<TRIPOS>ATOM
      1 C         144.0074  142.5651  162.7437 C.ar    1  UNL1        0.0677
      2 C         144.4495  143.9859  162.5545 C.ar    1  UNL1        0.0162
      3 C         143.6840  145.1019  163.2014 C.ar    1  UNL1        0.0029
      4 C         142.4764  144.7971  164.0374 C.ar    1  UNL1        0.0188
      5 C         142.0344  143.3763  164.2266 C.ar    1  UNL1        0.0801
      6 C         142.7999  142.2603  163.5797 C.ar    1  UNL1        0.1120
      7 N         142.1306  140.9678  163.9427 N.ar    1  UNL1       -0.2256
      8 C         140.9515  141.2851  164.8139 C.ar    1  UNL1        0.1439
      9 N         140.8920  142.7736  164.9894 N.ar    1  UNL1       -0.3094
     10 C         139.8697  143.5272  165.7875 C.3     1  UNL1        0.1319
     11 C         139.9991  140.2888  165.4059 C.ar    1  UNL1        0.0343
     12 C         139.6256  140.3781  166.8558 C.ar    1  UNL1        0.0053
     13 C         138.6732  139.3818  167.4477 C.ar    1  UNL1        0.0297
     14 C         138.0943  138.2963  166.5895 C.ar    1  UNL1        0.1401
     15 F         137.1418  137.2999  167.1814 F       1  UNL1       -0.2042
     16 C         138.4678  138.2069  165.1396 C.ar    1  UNL1        0.0297
     17 C         139.4202  139.2032  164.5477 C.ar    1  UNL1        0.0053
     18 N         144.7729  141.4490  162.0968 N.pl3   1  UNL1       -0.3113
     19 H         145.7033  141.2703  162.3646 H       1  UNL1        0.1523
     20 C         142.8166  138.9174  158.9323 C.ar    1  UNL1        0.0929
     21 C         142.9857  140.3920  158.7147 C.ar    1  UNL1        0.0211
     22 C         143.6378  141.2358  159.7696 C.ar    1  UNL1        0.0162
     23 C         144.1208  140.6051  161.0420 C.ar    1  UNL1        0.0507
     24 C         143.9517  139.1307  161.2595 C.ar    1  UNL1        0.0457
     25 C         143.2996  138.2868  160.2047 C.ar    1  UNL1        0.1574
     26 F         143.1306  136.8123  160.4222 F       1  UNL1       -0.2026
     27 C         139.2473  136.9333  155.5850 C.3     1  UNL1        0.0538
     28 C         140.5239  137.1616  156.3388 C.ar    1  UNL1        0.0786
     29 C         140.7503  138.2030  157.3944 C.ar    1  UNL1        0.0963
     30 N         142.1645  138.0736  157.8774 N.ar    1  UNL1       -0.2846
     31 C         142.8120  136.9522  157.1205 C.ar    1  UNL1        0.1826
     32 N         141.7981  136.3885  156.1695 N.ar    1  UNL1       -0.2280
@<TRIPOS>BOND
     1    27    28    1
     2    28    29   ar
     3    29    30   ar
     4    30    20    1
     5    20    21   ar
     6    21    22   ar
     7    22    23   ar
     8    23    18    1
     9    18     1    1
    10     1     2   ar
    11     2     3   ar
    12     3     4   ar
    13     4     5   ar
    14     5     6   ar
    15     6     7   ar
    16     7     8   ar
    17     8    11    1
    18    11    12   ar
    19    12    13   ar
    20    13    14   ar
    21    14    15    1
    22    14    16   ar
    23    16    17   ar
    24     8     9   ar
    25     9    10    1
    26    23    24   ar
    27    24    25   ar
    28    25    26    1
    29    30    31   ar
    30    31    32   ar
    31    32    28   ar
    32    25    20   ar
    33     6     1   ar
    34    17    11   ar
    35     9     5   ar
    36    18    19    1
@<TRIPOS>MOLECULE
*****
 32 36 0 0 0
SMALL
GASTEIGER

@<TRIPOS>ATOM
      1 C         138.6508  140.5313  159.0956 C.ar    1  UNL1        0.0677
      2 C         137.8765  140.6363  157.8152 C.ar    1  UNL1        0.0162
      3 C         137.8960  141.9140  157.0297 C.ar    1  UNL1        0.0029
      4 C         138.6897  143.0866  157.5245 C.ar    1  UNL1        0.0188
      5 C         139.4640  142.9816  158.8048 C.ar    1  UNL1        0.0801
      6 C         139.4445  141.7040  159.5904 C.ar    1  UNL1        0.1120
      7 N         140.2995  141.8954  160.8080 N.ar    1  UNL1       -0.2256
      8 C         140.8474  143.2913  160.7749 C.ar    1  UNL1        0.1439
      9 N         140.3310  143.9627  159.5369 N.ar    1  UNL1       -0.3094
     10 C         140.6292  145.3683  159.1064 C.3     1  UNL1        0.1319
     11 C         141.7527  143.9078  161.7998 C.ar    1  UNL1        0.0343
     12 C         141.1844  144.8018  162.8618 C.ar    1  UNL1        0.0053
     13 C         142.0897  145.4182  163.8866 C.ar    1  UNL1        0.0297
     14 C         143.5633  145.1406  163.8496 C.ar    1  UNL1        0.1401
     15 F         144.4686  145.7571  164.8745 F       1  UNL1       -0.2042
     16 C         144.1316  144.2466  162.7876 C.ar    1  UNL1        0.0297
     17 C         143.2263  143.6302  161.7628 C.ar    1  UNL1        0.0053
     18 N         138.6314  139.2536  159.8812 N.pl3   1  UNL1       -0.3113
     19 H         138.6146  138.3879  159.4128 H       1  UNL1        0.1523
     20 C         138.6499  139.3778  164.3795 C.ar    1  UNL1        0.0929
     21 C         137.7373  140.2845  163.6079 C.ar    1  UNL1        0.0211
     22 C         137.7311  140.2431  162.1085 C.ar    1  UNL1        0.0162
     23 C         138.6375  139.2950  161.3807 C.ar    1  UNL1        0.0507
     24 C         139.5500  138.3884  162.1522 C.ar    1  UNL1        0.0457
     25 C         139.5562  138.4298  163.6516 C.ar    1  UNL1        0.1574
     26 F         140.4688  137.5231  164.4232 F       1  UNL1       -0.2026
     27 C         139.9162  140.5697  169.3651 C.3     1  UNL1        0.0538
     28 C         139.2381  139.9670  168.1706 C.ar    1  UNL1        0.0786
     29 C         139.5861  140.2269  166.7348 C.ar    1  UNL1        0.0963
     30 N         138.6560  139.4192  165.8789 N.ar    1  UNL1       -0.2846
     31 C         137.7332  138.6602  166.7857 C.ar    1  UNL1        0.1826
     32 N         138.0929  138.9987  168.2020 N.ar    1  UNL1       -0.2280
@<TRIPOS>BOND
     1    27    28    1
     2    28    29   ar
     3    29    30   ar
     4    30    20    1
     5    20    21   ar
     6    21    22   ar
     7    22    23   ar
     8    23    18    1
     9    18     1    1
    10     1     2   ar
    11     2     3   ar
    12     3     4   ar
    13     4     5   ar
    14     5     6   ar
    15     6     7   ar
    16     7     8   ar
    17     8    11    1
    18    11    12   ar
    19    12    13   ar
    20    13    14   ar
    21    14    15    1
    22    14    16   ar
    23    16    17   ar
    24     8     9   ar
    25     9    10    1
    26    23    24   ar
    27    24    25   ar
    28    25    26    1
    29    30    31   ar
    30    31    32   ar
    31    32    28   ar
    32    25    20   ar
    33     6     1   ar
    34    17    11   ar
    35     9     5   ar
    36    18    19    1
@<TRIPOS>MOLECULE
*****
 32 36 0 0 0
SMALL
GASTEIGER

@<TRIPOS>ATOM
      1 C         138.9556  139.6714  168.2824 C.ar    1  UNL1        0.0677
      2 C         138.4101  139.9212  169.6571 C.ar    1  UNL1        0.0162
      3 C         139.1748  140.7762  170.6236 C.ar    1  UNL1        0.0029
      4 C         140.4851  141.3814  170.2153 C.ar    1  UNL1        0.0188
      5 C         141.0307  141.1317  168.8406 C.ar    1  UNL1        0.0801
      6 C         140.2660  140.2767  167.8741 C.ar    1  UNL1        0.1120
      7 N         141.0487  140.2076  166.5963 N.ar    1  UNL1       -0.2256
      8 C         142.2972  141.0200  166.7731 C.ar    1  UNL1        0.1439
      9 N         142.2861  141.5911  168.1602 N.ar    1  UNL1       -0.3094
     10 C         143.3445  142.4677  168.7612 C.3     1  UNL1        0.1319
     11 C         143.3688  141.2253  165.7437 C.ar    1  UNL1        0.0343
     12 C         144.0175  140.0413  165.0900 C.ar    1  UNL1        0.0053
     13 C         145.0889  140.2466  164.0606 C.ar    1  UNL1        0.0297
     14 C         145.5118  141.6359  163.6849 C.ar    1  UNL1        0.1401
     15 F         146.5833  141.8412  162.6555 F       1  UNL1       -0.2042
     16 C         144.8631  142.8199  164.3386 C.ar    1  UNL1        0.0297
     17 C         143.7916  142.6146  165.3680 C.ar    1  UNL1        0.0053
     18 N         138.1909  138.8164  167.3159 N.pl3   1  UNL1       -0.3113
     19 H         137.6209  138.0860  167.6490 H       1  UNL1        0.1523
     20 C         138.5022  139.5895  162.8937 C.ar    1  UNL1        0.0929
     21 C         137.9841  140.6603  163.8077 C.ar    1  UNL1        0.0211
     22 C         137.8803  140.4025  165.2817 C.ar    1  UNL1        0.0162
     23 C         138.2946  139.0741  165.8418 C.ar    1  UNL1        0.0507
     24 C         138.8127  138.0034  164.9279 C.ar    1  UNL1        0.0457
     25 C         138.9165  138.2612  163.4538 C.ar    1  UNL1        0.1574
     26 F         139.4345  137.1904  162.5399 F       1  UNL1       -0.2026
     27 C         140.4244  140.8401  158.1375 C.3     1  UNL1        0.0538
     28 C         139.4895  140.4221  159.2334 C.ar    1  UNL1        0.0786
     29 C         139.8381  140.2871  160.6861 C.ar    1  UNL1        0.0963
     30 N         138.6059  139.8473  161.4197 N.ar    1  UNL1       -0.2846
     31 C         137.4957  139.7104  160.4204 C.ar    1  UNL1        0.1826
     32 N         138.0417  140.0656  159.0692 N.ar    1  UNL1       -0.2280
@<TRIPOS>BOND
     1    27    28    1
     2    28    29   ar
     3    29    30   ar
     4    30    20    1
     5    20    21   ar
     6    21    22   ar
     7    22    23   ar
     8    23    18    1
     9    18     1    1
    10     1     2   ar
    11     2     3   ar
    12     3     4   ar
    13     4     5   ar
    14     5     6   ar
    15     6     7   ar
    16     7     8   ar
    17     8    11    1
    18    11    12   ar
    19    12    13   ar
    20    13    14   ar
    21    14    15    1
    22    14    16   ar
    23    16    17   ar
    24     8     9   ar
    25     9    10    1
    26    23    24   ar
    27    24    25   ar
    28    25    26    1
    29    30    31   ar
    30    31    32   ar
    31    32    28   ar
    32    25    20   ar
    33     6     1   ar
    34    17    11   ar
    35     9     5   ar
    36    18    19    1
@<TRIPOS>MOLECULE
*****
 32 36 0 0 0
SMALL
GASTEIGER

@<TRIPOS>ATOM
      1 C         143.7509  140.7235  159.1413 C.ar    1  UNL1        0.0677
      2 C         144.4792  141.0019  157.8600 C.ar    1  UNL1        0.0162
      3 C         144.2604  142.2993  157.1397 C.ar    1  UNL1        0.0029
      4 C         143.3134  143.3183  157.7008 C.ar    1  UNL1        0.0188
      5 C         142.5851  143.0398  158.9822 C.ar    1  UNL1        0.0801
      6 C         142.8038  141.7424  159.7024 C.ar    1  UNL1        0.1120
      7 N         141.9515  141.7480  160.9368 N.ar    1  UNL1       -0.2256
      8 C         141.2059  143.0489  160.9793 C.ar    1  UNL1        0.1439
      9 N         141.5975  143.8473  159.7713 N.ar    1  UNL1       -0.3094
     10 C         141.0906  145.2133  159.4150 C.3     1  UNL1        0.1319
     11 C         140.2386  143.4765  162.0431 C.ar    1  UNL1        0.0343
     12 C         138.8021  143.0520  161.9650 C.ar    1  UNL1        0.0053
     13 C         137.8349  143.4795  163.0288 C.ar    1  UNL1        0.0297
     14 C         138.3042  144.3316  164.1706 C.ar    1  UNL1        0.1401
     15 F         137.3369  144.7591  165.2344 F       1  UNL1       -0.2042
     16 C         139.7407  144.7561  164.2487 C.ar    1  UNL1        0.0297
     17 C         140.7079  144.3285  163.1849 C.ar    1  UNL1        0.0053
     18 N         143.9696  139.4260  159.8617 N.pl3   1  UNL1       -0.3113
     19 H         144.2311  138.6214  159.3582 H       1  UNL1        0.1523
     20 C         143.4304  139.2114  164.3241 C.ar    1  UNL1        0.0929
     21 C         144.4638  140.1264  163.7367 C.ar    1  UNL1        0.0211
     22 C         144.6436  140.1979  162.2492 C.ar    1  UNL1        0.0162
     23 C         143.7899  139.3545  161.3492 C.ar    1  UNL1        0.0507
     24 C         142.7565  138.4396  161.9366 C.ar    1  UNL1        0.0457
     25 C         142.5768  138.3681  163.4241 C.ar    1  UNL1        0.1574
     26 F         141.5433  137.4532  164.0115 F       1  UNL1       -0.2026
     27 C         142.0116  140.3840  169.2731 C.3     1  UNL1        0.0538
     28 C         142.5985  139.6789  168.0864 C.ar    1  UNL1        0.0786
     29 C         142.5374  140.1480  166.6630 C.ar    1  UNL1        0.0963
     30 N         143.2506  139.1399  165.8116 N.ar    1  UNL1       -0.2846
     31 C         143.7526  138.0477  166.7088 C.ar    1  UNL1        0.1826
     32 N         143.3496  138.3808  168.1148 N.ar    1  UNL1       -0.2280
@<TRIPOS>BOND
     1    27    28    1
     2    28    29   ar
     3    29    30   ar
     4    30    20    1
     5    20    21   ar
     6    21    22   ar
     7    22    23   ar
     8    23    18    1
     9    18     1    1
    10     1     2   ar
    11     2     3   ar
    12     3     4   ar
    13     4     5   ar
    14     5     6   ar
    15     6     7   ar
    16     7     8   ar
    17     8    11    1
    18    11    12   ar
    19    12    13   ar
    20    13    14   ar
    21    14    15    1
    22    14    16   ar
    23    16    17   ar
    24     8     9   ar
    25     9    10    1
    26    23    24   ar
    27    24    25   ar
    28    25    26    1
    29    30    31   ar
    30    31    32   ar
    31    32    28   ar
    32    25    20   ar
    33     6     1   ar
    34    17    11   ar
    35     9     5   ar
    36    18    19    1
@<TRIPOS>MOLECULE
*****
 32 36 0 0 0
SMALL
GASTEIGER

@<TRIPOS>ATOM
      1 C         142.8532  139.2086  167.8417 C.ar    1  UNL1        0.0677
      2 C         142.7197  138.7489  169.2633 C.ar    1  UNL1        0.0162
      3 C         141.9337  139.5663  170.2451 C.ar    1  UNL1        0.0029
      4 C         141.2812  140.8433  169.8054 C.ar    1  UNL1        0.0188
      5 C         141.4147  141.3030  168.3839 C.ar    1  UNL1        0.0801
      6 C         142.2007  140.4857  167.4020 C.ar    1  UNL1        0.1120
      7 N         142.1586  141.1867  166.0765 N.ar    1  UNL1       -0.2256
      8 C         141.3466  142.4374  166.2393 C.ar    1  UNL1        0.1439
      9 N         140.8869  142.5092  167.6653 N.ar    1  UNL1       -0.3094
     10 C         140.0467  143.5965  168.2670 C.3     1  UNL1        0.1319
     11 C         141.0470  143.4401  165.1646 C.ar    1  UNL1        0.0343
     12 C         142.1677  144.0622  164.3856 C.ar    1  UNL1        0.0053
     13 C         141.8680  145.0649  163.3111 C.ar    1  UNL1        0.0297
     14 C         140.4476  145.4456  163.0155 C.ar    1  UNL1        0.1401
     15 F         140.1479  146.4483  161.9409 F       1  UNL1       -0.2042
     16 C         139.3268  144.8235  163.7945 C.ar    1  UNL1        0.0297
     17 C         139.6265  143.8208  164.8691 C.ar    1  UNL1        0.0053
     18 N         143.6392  138.3912  166.8598 N.pl3   1  UNL1       -0.3113
     19 H         144.4136  137.8655  167.1652 H       1  UNL1        0.1523
     20 C         142.4578  138.3419  162.5179 C.ar    1  UNL1        0.0929
     21 C         141.5824  137.6806  163.5410 C.ar    1  UNL1        0.0211
     22 C         141.9762  137.6970  164.9882 C.ar    1  UNL1        0.0162
     23 C         143.2454  138.3748  165.4125 C.ar    1  UNL1        0.0507
     24 C         144.1207  139.0361  164.3895 C.ar    1  UNL1        0.0457
     25 C         143.7269  139.0196  162.9422 C.ar    1  UNL1        0.1574
     26 F         144.6022  139.6810  161.9192 F       1  UNL1       -0.2026
     27 C         139.7228  139.0037  158.0499 C.3     1  UNL1        0.0538
     28 C         140.8068  138.6297  159.0169 C.ar    1  UNL1        0.0786
     29 C         140.7790  138.8489  160.5005 C.ar    1  UNL1        0.0963
     30 N         142.0639  138.3255  161.0707 N.ar    1  UNL1       -0.2846
     31 C         142.8859  137.7828  159.9393 C.ar    1  UNL1        0.1826
     32 N         142.1090  137.9708  158.6700 N.ar    1  UNL1       -0.2280
@<TRIPOS>BOND
     1    27    28    1
     2    28    29   ar
     3    29    30   ar
     4    30    20    1
     5    20    21   ar
     6    21    22   ar
     7    22    23   ar
     8    23    18    1
     9    18     1    1
    10     1     2   ar
    11     2     3   ar
    12     3     4   ar
    13     4     5   ar
    14     5     6   ar
    15     6     7   ar
    16     7     8   ar
    17     8    11    1
    18    11    12   ar
    19    12    13   ar
    20    13    14   ar
    21    14    15    1
    22    14    16   ar
    23    16    17   ar
    24     8     9   ar
    25     9    10    1
    26    23    24   ar
    27    24    25   ar
    28    25    26    1
    29    30    31   ar
    30    31    32   ar
    31    32    28   ar
    32    25    20   ar
    33     6     1   ar
    34    17    11   ar
    35     9     5   ar
    36    18    19    1
@<TRIPOS>MOLECULE
*****
 32 36 0 0 0
SMALL
GASTEIGER

@<TRIPOS>ATOM
      1 C         138.3364  140.6039  158.7148 C.ar    1  UNL1        0.0677
      2 C         138.2592  142.0957  158.5790 C.ar    1  UNL1        0.0162
      3 C         139.1895  142.8130  157.6463 C.ar    1  UNL1        0.0029
      4 C         140.1970  142.0385  156.8494 C.ar    1  UNL1        0.0188
      5 C         140.2742  140.5466  156.9852 C.ar    1  UNL1        0.0801
      6 C         139.3439  139.8294  157.9179 C.ar    1  UNL1        0.1120
      7 N         139.6520  138.3632  157.8432 N.ar    1  UNL1       -0.2256
      8 C         140.7727  138.1744  156.8643 C.ar    1  UNL1        0.1439
      9 N         141.1573  139.5238  156.3340 N.ar    1  UNL1       -0.3094
     10 C         142.2356  139.8017  155.3290 C.3     1  UNL1        0.1319
     11 C         141.3990  136.8659  156.4825 C.ar    1  UNL1        0.0343
     12 C         142.6417  136.3975  157.1798 C.ar    1  UNL1        0.0053
     13 C         143.2679  135.0890  156.7981 C.ar    1  UNL1        0.0297
     14 C         142.6514  134.2490  155.7191 C.ar    1  UNL1        0.1401
     15 F         143.2777  132.9404  155.3374 F       1  UNL1       -0.2042
     16 C         141.4087  134.7173  155.0219 C.ar    1  UNL1        0.0297
     17 C         140.7825  136.0258  155.4036 C.ar    1  UNL1        0.0053
     18 N         137.4061  139.8865  159.6476 N.pl3   1  UNL1       -0.3113
     19 H         136.5989  139.4463  159.2955 H       1  UNL1        0.1523
     20 C         138.3046  139.7469  164.0547 C.ar    1  UNL1        0.0929
     21 C         137.8109  141.0181  163.4299 C.ar    1  UNL1        0.0211
     22 C         137.5114  141.0646  161.9608 C.ar    1  UNL1        0.0162
     23 C         137.7056  139.8400  161.1166 C.ar    1  UNL1        0.0507
     24 C         138.1993  138.5689  161.7415 C.ar    1  UNL1        0.0457
     25 C         138.4988  138.5223  163.2105 C.ar    1  UNL1        0.1574
     26 F         138.9925  137.2511  163.8354 F       1  UNL1       -0.2026
     27 C         140.5078  140.6759  168.7626 C.3     1  UNL1        0.0538
     28 C         139.6168  140.1273  167.6878 C.ar    1  UNL1        0.0786
     29 C         139.6730  140.4798  166.2308 C.ar    1  UNL1        0.0963
     30 N         138.6041  139.7003  165.5238 N.ar    1  UNL1       -0.2846
     31 C         137.8874  138.8661  166.5438 C.ar    1  UNL1        0.1826
     32 N         138.5132  139.1300  167.8812 N.ar    1  UNL1       -0.2280
@<TRIPOS>BOND
     1    27    28    1
     2    28    29   ar
     3    29    30   ar
     4    30    20    1
     5    20    21   ar
     6    21    22   ar
     7    22    23   ar
     8    23    18    1
     9    18     1    1
    10     1     2   ar
    11     2     3   ar
    12     3     4   ar
    13     4     5   ar
    14     5     6   ar
    15     6     7   ar
    16     7     8   ar
    17     8    11    1
    18    11    12   ar
    19    12    13   ar
    20    13    14   ar
    21    14    15    1
    22    14    16   ar
    23    16    17   ar
    24     8     9   ar
    25     9    10    1
    26    23    24   ar
    27    24    25   ar
    28    25    26    1
    29    30    31   ar
    30    31    32   ar
    31    32    28   ar
    32    25    20   ar
    33     6     1   ar
    34    17    11   ar
    35     9     5   ar
    36    18    19    1
@<TRIPOS>MOLECULE
*****
 32 36 0 0 0
SMALL
GASTEIGER

@<TRIPOS>ATOM
      1 C         141.7874  138.4800  160.3314 C.ar    1  UNL1        0.0677
      2 C         141.9352  138.0873  158.8913 C.ar    1  UNL1        0.0162
      3 C         141.3761  138.9671  157.8129 C.ar    1  UNL1        0.0029
      4 C         140.6692  140.2397  158.1745 C.ar    1  UNL1        0.0188
      5 C         140.5214  140.6325  159.6145 C.ar    1  UNL1        0.0801
      6 C         141.0805  139.7526  160.6930 C.ar    1  UNL1        0.1120
      7 N         140.7840  140.3951  162.0157 N.ar    1  UNL1       -0.2256
      8 C         140.0416  141.6720  161.7546 C.ar    1  UNL1        0.1439
      9 N         139.8793  141.8187  160.2706 N.ar    1  UNL1       -0.3094
     10 C         139.1950  142.9527  159.5663 C.3     1  UNL1        0.1319
     11 C         139.5481  142.6336  162.7948 C.ar    1  UNL1        0.0343
     12 C         140.4085  143.7869  163.2185 C.ar    1  UNL1        0.0053
     13 C         139.9150  144.7483  164.2587 C.ar    1  UNL1        0.0297
     14 C         138.5610  144.5564  164.8752 C.ar    1  UNL1        0.1401
     15 F         138.0675  145.5180  165.9154 F       1  UNL1       -0.2042
     16 C         137.7006  143.4031  164.4515 C.ar    1  UNL1        0.0297
     17 C         138.1942  142.4417  163.4113 C.ar    1  UNL1        0.0053
     18 N         142.3466  137.6001  161.4100 N.pl3   1  UNL1       -0.3113
     19 H         142.6426  136.6860  161.1954 H       1  UNL1        0.1523
     20 C         142.6705  139.1387  165.6263 C.ar    1  UNL1        0.0929
     21 C         141.5113  138.2727  165.2310 C.ar    1  UNL1        0.0211
     22 C         141.4033  137.7598  163.8255 C.ar    1  UNL1        0.0162
     23 C         142.4546  138.1130  162.8154 C.ar    1  UNL1        0.0507
     24 C         143.6137  138.9789  163.2108 C.ar    1  UNL1        0.0457
     25 C         143.7217  139.4918  164.6163 C.ar    1  UNL1        0.1574
     26 F         144.8810  140.3578  165.0116 F       1  UNL1       -0.2026
     27 C         142.8531  142.3837  169.7878 C.3     1  UNL1        0.0538
     28 C         142.8625  141.1431  168.9446 C.ar    1  UNL1        0.0786
     29 C         142.7089  141.0894  167.4535 C.ar    1  UNL1        0.0963
     30 N         142.7785  139.6516  167.0318 N.ar    1  UNL1       -0.2846
     31 C         142.9751  138.8167  168.2624 C.ar    1  UNL1        0.1826
     32 N         143.0270  139.7385  169.4446 N.ar    1  UNL1       -0.2280
@<TRIPOS>BOND
     1    27    28    1
     2    28    29   ar
     3    29    30   ar
     4    30    20    1
     5    20    21   ar
     6    21    22   ar
     7    22    23   ar
     8    23    18    1
     9    18     1    1
    10     1     2   ar
    11     2     3   ar
    12     3     4   ar
    13     4     5   ar
    14     5     6   ar
    15     6     7   ar
    16     7     8   ar
    17     8    11    1
    18    11    12   ar
    19    12    13   ar
    20    13    14   ar
    21    14    15    1
    22    14    16   ar
    23    16    17   ar
    24     8     9   ar
    25     9    10    1
    26    23    24   ar
    27    24    25   ar
    28    25    26    1
    29    30    31   ar
    30    31    32   ar
    31    32    28   ar
    32    25    20   ar
    33     6     1   ar
    34    17    11   ar
    35     9     5   ar
    36    18    19    1
@<TRIPOS>MOLECULE
*****
 32 36 0 0 0
SMALL
GASTEIGER

@<TRIPOS>ATOM
      1 C         138.2093  140.8436  158.8719 C.ar    1  UNL1        0.0677
      2 C         137.5506  141.3550  157.6251 C.ar    1  UNL1        0.0162
      3 C         138.2484  142.3717  156.7712 C.ar    1  UNL1        0.0029
      4 C         139.6051  142.8770  157.1640 C.ar    1  UNL1        0.0188
      5 C         140.2638  142.3655  158.4108 C.ar    1  UNL1        0.0801
      6 C         139.5660  141.3488  159.2647 C.ar    1  UNL1        0.1120
      7 N         140.4569  141.0311  160.4289 N.ar    1  UNL1       -0.2256
      8 C         141.7054  141.8516  160.2945 C.ar    1  UNL1        0.1439
      9 N         141.5861  142.6763  159.0472 N.ar    1  UNL1       -0.3094
     10 C         142.6093  143.6421  158.5275 C.3     1  UNL1        0.1319
     11 C         142.8691  141.8480  161.2411 C.ar    1  UNL1        0.0343
     12 C         143.6215  140.5764  161.4999 C.ar    1  UNL1        0.0053
     13 C         144.7850  140.5729  162.4464 C.ar    1  UNL1        0.0297
     14 C         145.1962  141.8409  163.1342 C.ar    1  UNL1        0.1401
     15 F         146.3599  141.8373  164.0809 F       1  UNL1       -0.2042
     16 C         144.4438  143.1125  162.8754 C.ar    1  UNL1        0.0297
     17 C         143.2803  143.1160  161.9289 C.ar    1  UNL1        0.0053
     18 N         137.5115  139.8268  159.7259 N.pl3   1  UNL1       -0.3113
     19 H         136.8817  139.1897  159.3174 H       1  UNL1        0.1523
     20 C         138.2965  139.6884  164.1547 C.ar    1  UNL1        0.0929
     21 C         137.6976  140.9173  163.5372 C.ar    1  UNL1        0.0211
     22 C         137.4360  140.9634  162.0609 C.ar    1  UNL1        0.0162
     23 C         137.7732  139.7807  161.2021 C.ar    1  UNL1        0.0507
     24 C         138.3720  138.5519  161.8197 C.ar    1  UNL1        0.0457
     25 C         138.6337  138.5057  163.2959 C.ar    1  UNL1        0.1574
     26 F         139.2326  137.2769  163.9134 F       1  UNL1       -0.2026
     27 C         140.3935  140.6011  168.9140 C.3     1  UNL1        0.0538
     28 C         139.5221  140.0618  167.8186 C.ar    1  UNL1        0.0786
     29 C         139.6200  140.4088  166.3626 C.ar    1  UNL1        0.0963
     30 N         138.5582  139.6423  165.6310 N.ar    1  UNL1       -0.2846
     31 C         137.8041  138.8217  166.6349 C.ar    1  UNL1        0.1826
     32 N         138.3998  139.0809  167.9869 N.ar    1  UNL1       -0.2280
@<TRIPOS>BOND
     1    27    28    1
     2    28    29   ar
     3    29    30   ar
     4    30    20    1
     5    20    21   ar
     6    21    22   ar
     7    22    23   ar
     8    23    18    1
     9    18     1    1
    10     1     2   ar
    11     2     3   ar
    12     3     4   ar
    13     4     5   ar
    14     5     6   ar
    15     6     7   ar
    16     7     8   ar
    17     8    11    1
    18    11    12   ar
    19    12    13   ar
    20    13    14   ar
    21    14    15    1
    22    14    16   ar
    23    16    17   ar
    24     8     9   ar
    25     9    10    1
    26    23    24   ar
    27    24    25   ar
    28    25    26    1
    29    30    31   ar
    30    31    32   ar
    31    32    28   ar
    32    25    20   ar
    33     6     1   ar
    34    17    11   ar
    35     9     5   ar
    36    18    19    1
