@<TRIPOS>MOLECULE
*****
 18 18 0 0 0
SMALL
GASTEIGER

@<TRIPOS>ATOM
      1 C         139.8831  140.1452  168.8339 C.1     1  UNL1       -0.0727
      2 C         138.9531  139.5301  167.8304 C.1     1  UNL1       -0.0849
      3 C         140.8129  140.7603  169.8374 C.3     1  UNL1        0.1498
      4 N         141.7802  141.8242  169.4101 N.3     1  UNL1       -0.2618
      5 C         141.7075  143.1928  170.0200 C.3     1  UNL1        0.0730
      6 C         140.4483  143.9996  169.9040 C.3     1  UNL1        0.0188
      7 C         142.8201  141.5196  168.3730 C.3     1  UNL1        0.0730
      8 C         142.7564  142.1836  167.0294 C.3     1  UNL1        0.0174
      9 C         140.3528  142.7871  166.2495 C.3     1  UNL1        0.0000
     10 C         141.5837  141.9388  166.1267 C.3     1  UNL1        0.0014
     11 C         138.0233  138.9150  166.8270 C.3     1  UNL1        0.1023
     12 C         138.3868  138.9106  165.3717 C.ar    1  UNL1       -0.0091
     13 C         138.2228  140.1573  164.5539 C.ar    1  UNL1       -0.0024
     14 C         138.5863  140.1530  163.0986 C.ar    1  UNL1        0.0111
     15 C         139.1139  138.9019  162.4611 C.ar    1  UNL1        0.0577
     16 CL        139.4774  138.8975  161.0059 Cl      1  UNL1       -0.0822
     17 C         139.2779  137.6552  163.2789 C.ar    1  UNL1        0.0111
     18 C         138.9144  137.6596  164.7342 C.ar    1  UNL1       -0.0024
@<TRIPOS>BOND
     1     9    10    1
     2    10     8    1
     3     8     7    1
     4     7     4    1
     5     4     5    1
     6     5     6    1
     7     4     3    1
     8     3     1    1
     9     1     2    3
    10     2    11    1
    11    11    12    1
    12    12    13   ar
    13    13    14   ar
    14    14    15   ar
    15    15    16    1
    16    15    17   ar
    17    17    18   ar
    18    18    12   ar
@<TRIPOS>MOLECULE
*****
 18 18 0 0 0
SMALL
GASTEIGER

@<TRIPOS>ATOM
      1 C         139.2441  140.0181  168.4698 C.1     1  UNL1       -0.0727
      2 C         138.7113  139.3208  167.2533 C.1     1  UNL1       -0.0849
      3 C         139.7768  140.7155  169.6863 C.3     1  UNL1        0.1498
      4 N         141.2024  141.1807  169.7201 N.3     1  UNL1       -0.2618
      5 C         141.5238  142.6299  169.5037 C.3     1  UNL1        0.0730
      6 C         140.4402  143.6619  169.6072 C.3     1  UNL1        0.0188
      7 C         142.3067  140.1968  169.9702 C.3     1  UNL1        0.0730
      8 C         142.6344  139.1589  168.9382 C.3     1  UNL1        0.0174
      9 C         143.3305  138.5913  166.5002 C.3     1  UNL1        0.0000
     10 C         142.7302  139.5437  167.4915 C.3     1  UNL1        0.0014
     11 C         138.1786  138.6234  166.0368 C.3     1  UNL1        0.1023
     12 C         139.0647  138.4119  164.8452 C.ar    1  UNL1       -0.0091
     13 C         140.2047  137.4400  164.9213 C.ar    1  UNL1       -0.0024
     14 C         141.0908  137.2285  163.7296 C.ar    1  UNL1        0.0111
     15 C         140.8370  137.9890  162.4619 C.ar    1  UNL1        0.0577
     16 CL        141.7232  137.7775  161.2702 Cl      1  UNL1       -0.0822
     17 C         139.6971  138.9609  162.3858 C.ar    1  UNL1        0.0111
     18 C         138.8110  139.1724  163.5774 C.ar    1  UNL1       -0.0024
@<TRIPOS>BOND
     1     9    10    1
     2    10     8    1
     3     8     7    1
     4     7     4    1
     5     4     5    1
     6     5     6    1
     7     4     3    1
     8     3     1    1
     9     1     2    3
    10     2    11    1
    11    11    12    1
    12    12    13   ar
    13    13    14   ar
    14    14    15   ar
    15    15    16    1
    16    15    17   ar
    17    17    18   ar
    18    18    12   ar
@<TRIPOS>MOLECULE
*****
 18 18 0 0 0
SMALL
GASTEIGER

@<TRIPOS>ATOM
      1 C         137.8544  140.8921  164.0392 C.1     1  UNL1       -0.0727
      2 C         138.2650  140.1132  165.2536 C.1     1  UNL1       -0.0849
      3 C         137.4439  141.6710  162.8248 C.3     1  UNL1        0.1498
      4 N         138.1437  142.9532  162.4841 N.3     1  UNL1       -0.2618
      5 C         139.1429  142.9882  161.3659 C.3     1  UNL1        0.0730
      6 C         140.5794  142.6487  161.6328 C.3     1  UNL1        0.0188
      7 C         137.8444  144.2005  163.2617 C.3     1  UNL1        0.0730
      8 C         138.8732  144.7682  164.1939 C.3     1  UNL1        0.0174
      9 C         140.3948  143.2050  165.6050 C.3     1  UNL1        0.0000
     10 C         139.1774  144.0735  165.4881 C.3     1  UNL1        0.0014
     11 C         138.6756  139.3344  166.4680 C.3     1  UNL1        0.1023
     12 C         139.8317  139.8004  167.3024 C.ar    1  UNL1       -0.0091
     13 C         141.2262  139.7374  166.7536 C.ar    1  UNL1       -0.0024
     14 C         142.3824  140.2034  167.5880 C.ar    1  UNL1        0.0111
     15 C         142.1439  140.7325  168.9712 C.ar    1  UNL1        0.0577
     16 CL        143.3000  141.1985  169.8056 Cl      1  UNL1       -0.0822
     17 C         140.7494  140.7955  169.5200 C.ar    1  UNL1        0.0111
     18 C         139.5933  140.3295  168.6856 C.ar    1  UNL1       -0.0024
@<TRIPOS>BOND
     1     9    10    1
     2    10     8    1
     3     8     7    1
     4     7     4    1
     5     4     5    1
     6     5     6    1
     7     4     3    1
     8     3     1    1
     9     1     2    3
    10     2    11    1
    11    11    12    1
    12    12    13   ar
    13    13    14   ar
    14    14    15   ar
    15    15    16    1
    16    15    17   ar
    17    17    18   ar
    18    18    12   ar
@<TRIPOS>MOLECULE
*****
 18 18 0 0 0
SMALL
GASTEIGER

@<TRIPOS>ATOM
      1 C         142.8399  139.1544  168.6153 C.1     1  UNL1       -0.0727
      2 C         143.0098  138.8428  167.1578 C.1     1  UNL1       -0.0849
      3 C         142.6701  139.4659  170.0726 C.3     1  UNL1        0.1498
      4 N         141.6307  140.4541  170.5122 N.3     1  UNL1       -0.2618
      5 C         142.0240  141.8681  170.8226 C.3     1  UNL1        0.0730
      6 C         142.6639  142.7179  169.7651 C.3     1  UNL1        0.0188
      7 C         140.1982  140.0285  170.6413 C.3     1  UNL1        0.0730
      8 C         139.1855  140.4885  169.6350 C.3     1  UNL1        0.0174
      9 C         140.1019  141.3805  167.3734 C.3     1  UNL1        0.0000
     10 C         139.4421  140.2941  168.1699 C.3     1  UNL1        0.0014
     11 C         143.1797  138.5312  165.7004 C.3     1  UNL1        0.1023
     12 C         141.9741  138.3299  164.8310 C.ar    1  UNL1       -0.0091
     13 C         140.5989  138.4208  165.4230 C.ar    1  UNL1       -0.0024
     14 C         139.3932  138.2194  164.5536 C.ar    1  UNL1        0.0111
     15 C         139.5627  137.9272  163.0922 C.ar    1  UNL1        0.0577
     16 CL        138.3571  137.7258  162.2228 Cl      1  UNL1       -0.0822
     17 C         140.9379  137.8363  162.5002 C.ar    1  UNL1        0.0111
     18 C         142.1436  138.0377  163.3696 C.ar    1  UNL1       -0.0024
@<TRIPOS>BOND
     1     9    10    1
     2    10     8    1
     3     8     7    1
     4     7     4    1
     5     4     5    1
     6     5     6    1
     7     4     3    1
     8     3     1    1
     9     1     2    3
    10     2    11    1
    11    11    12    1
    12    12    13   ar
    13    13    14   ar
    14    14    15   ar
    15    15    16    1
    16    15    17   ar
    17    17    18   ar
    18    18    12   ar
@<TRIPOS>MOLECULE
*****
 18 18 0 0 0
SMALL
GASTEIGER

@<TRIPOS>ATOM
      1 C         143.7093  139.1212  164.8928 C.1     1  UNL1       -0.0727
      2 C         143.2453  139.1581  166.3188 C.1     1  UNL1       -0.0849
      3 C         144.1734  139.0842  163.4669 C.3     1  UNL1        0.1498
      4 N         144.6082  140.3484  162.7866 N.3     1  UNL1       -0.2618
      5 C         144.1552  140.6409  161.3869 C.3     1  UNL1        0.0730
      6 C         142.7663  141.1505  161.1392 C.3     1  UNL1        0.0188
      7 C         145.4961  141.3200  163.5061 C.3     1  UNL1        0.0730
      8 C         145.0131  142.7124  163.7853 C.3     1  UNL1        0.0174
      9 C         143.0198  142.7637  165.4509 C.3     1  UNL1        0.0000
     10 C         144.4566  143.0567  165.1351 C.3     1  UNL1        0.0014
     11 C         142.7812  139.1951  167.7447 C.3     1  UNL1        0.1023
     12 C         142.1944  140.4545  168.3100 C.ar    1  UNL1       -0.0091
     13 C         140.7183  140.7033  168.2136 C.ar    1  UNL1       -0.0024
     14 C         140.1315  141.9627  168.7789 C.ar    1  UNL1        0.0111
     15 C         141.0207  142.9733  169.4406 C.ar    1  UNL1        0.0577
     16 CL        140.4339  144.2326  170.0060 Cl      1  UNL1       -0.0822
     17 C         142.4967  142.7245  169.5370 C.ar    1  UNL1        0.0111
     18 C         143.0836  141.4651  168.9717 C.ar    1  UNL1       -0.0024
@<TRIPOS>BOND
     1     9    10    1
     2    10     8    1
     3     8     7    1
     4     7     4    1
     5     4     5    1
     6     5     6    1
     7     4     3    1
     8     3     1    1
     9     1     2    3
    10     2    11    1
    11    11    12    1
    12    12    13   ar
    13    13    14   ar
    14    14    15   ar
    15    15    16    1
    16    15    17   ar
    17    17    18   ar
    18    18    12   ar
@<TRIPOS>MOLECULE
*****
 18 18 0 0 0
SMALL
GASTEIGER

@<TRIPOS>ATOM
      1 C         141.8033  138.1147  164.6794 C.1     1  UNL1       -0.0727
      2 C         142.3909  138.6821  165.9375 C.1     1  UNL1       -0.0849
      3 C         141.2158  137.5473  163.4213 C.3     1  UNL1        0.1498
      4 N         139.7417  137.6568  163.1661 N.3     1  UNL1       -0.2618
      5 C         139.2420  138.0151  161.7978 C.3     1  UNL1        0.0730
      6 C         137.8512  138.5492  161.6234 C.3     1  UNL1        0.0188
      7 C         138.7673  137.4079  164.2790 C.3     1  UNL1        0.0730
      8 C         138.6699  138.3757  165.4209 C.3     1  UNL1        0.0174
      9 C         139.2536  140.8576  164.9216 C.3     1  UNL1        0.0000
     10 C         138.2316  139.7884  165.1714 C.3     1  UNL1        0.0014
     11 C         142.9784  139.2495  167.1956 C.3     1  UNL1        0.1023
     12 C         142.2349  140.3030  167.9619 C.ar    1  UNL1       -0.0091
     13 C         142.9405  141.5536  168.3953 C.ar    1  UNL1       -0.0024
     14 C         142.1970  142.6071  169.1616 C.ar    1  UNL1        0.0111
     15 C         140.7478  142.4100  169.4946 C.ar    1  UNL1        0.0577
     16 CL        140.0042  143.4635  170.2609 Cl      1  UNL1       -0.0822
     17 C         140.0421  141.1593  169.0612 C.ar    1  UNL1        0.0111
     18 C         140.7857  140.1058  168.2949 C.ar    1  UNL1       -0.0024
@<TRIPOS>BOND
     1     9    10    1
     2    10     8    1
     3     8     7    1
     4     7     4    1
     5     4     5    1
     6     5     6    1
     7     4     3    1
     8     3     1    1
     9     1     2    3
    10     2    11    1
    11    11    12    1
    12    12    13   ar
    13    13    14   ar
    14    14    15   ar
    15    15    16    1
    16    15    17   ar
    17    17    18   ar
    18    18    12   ar
@<TRIPOS>MOLECULE
*****
 18 18 0 0 0
SMALL
GASTEIGER

@<TRIPOS>ATOM
      1 C         139.0615  138.5090  165.4664 C.1     1  UNL1       -0.0727
      2 C         139.1219  139.2098  166.7913 C.1     1  UNL1       -0.0849
      3 C         139.0011  137.8083  164.1415 C.3     1  UNL1        0.1498
      4 N         140.1747  137.8646  163.2091 N.3     1  UNL1       -0.2618
      5 C         139.9526  137.9740  161.7296 C.3     1  UNL1        0.0730
      6 C         139.1102  139.0858  161.1779 C.3     1  UNL1        0.0188
      7 C         141.5704  137.8115  163.7560 C.3     1  UNL1        0.0730
      8 C         142.3329  139.0817  163.9906 C.3     1  UNL1        0.0174
      9 C         143.2615  138.4908  166.3440 C.3     1  UNL1        0.0000
     10 C         142.6898  139.4951  165.3877 C.3     1  UNL1        0.0014
     11 C         139.1824  139.9105  168.1162 C.3     1  UNL1        0.1023
     12 C         140.4612  140.5511  168.5682 C.ar    1  UNL1       -0.0091
     13 C         140.7124  142.0031  168.2882 C.ar    1  UNL1       -0.0024
     14 C         141.9912  142.6438  168.7401 C.ar    1  UNL1        0.0111
     15 C         143.0187  141.8324  169.4721 C.ar    1  UNL1        0.0577
     16 CL        144.2975  142.4731  169.9241 Cl      1  UNL1       -0.0822
     17 C         142.7675  140.3804  169.7521 C.ar    1  UNL1        0.0111
     18 C         141.4887  139.7397  169.3002 C.ar    1  UNL1       -0.0024
@<TRIPOS>BOND
     1     9    10    1
     2    10     8    1
     3     8     7    1
     4     7     4    1
     5     4     5    1
     6     5     6    1
     7     4     3    1
     8     3     1    1
     9     1     2    3
    10     2    11    1
    11    11    12    1
    12    12    13   ar
    13    13    14   ar
    14    14    15   ar
    15    15    16    1
    16    15    17   ar
    17    17    18   ar
    18    18    12   ar
@<TRIPOS>MOLECULE
*****
 18 18 0 0 0
SMALL
GASTEIGER

@<TRIPOS>ATOM
      1 C         139.7841  140.5999  168.4763 C.1     1  UNL1       -0.0727
      2 C         138.9630  139.7530  167.5495 C.1     1  UNL1       -0.0849
      3 C         140.6050  141.4467  169.4030 C.3     1  UNL1        0.1498
      4 N         142.1016  141.3477  169.3816 N.3     1  UNL1       -0.2618
      5 C         142.8044  140.4057  170.3138 C.3     1  UNL1        0.0730
      6 C         142.6150  138.9250  170.1670 C.3     1  UNL1        0.0188
      7 C         142.8954  142.1908  168.4282 C.3     1  UNL1        0.0730
      8 C         142.5443  142.2066  166.9699 C.3     1  UNL1        0.0174
      9 C         142.4878  139.7270  166.1965 C.3     1  UNL1        0.0000
     10 C         143.0397  141.1158  166.0673 C.3     1  UNL1        0.0014
     11 C         138.1421  138.9062  166.6228 C.3     1  UNL1        0.1023
     12 C         138.5393  138.7684  165.1829 C.ar    1  UNL1       -0.0091
     13 C         139.3913  137.6133  164.7472 C.ar    1  UNL1       -0.0024
     14 C         139.7885  137.4755  163.3074 C.ar    1  UNL1        0.0111
     15 C         139.3337  138.4927  162.3032 C.ar    1  UNL1        0.0577
     16 CL        139.7309  138.3549  160.8633 Cl      1  UNL1       -0.0822
     17 C         138.4817  139.6477  162.7389 C.ar    1  UNL1        0.0111
     18 C         138.0845  139.7856  164.1788 C.ar    1  UNL1       -0.0024
@<TRIPOS>BOND
     1     9    10    1
     2    10     8    1
     3     8     7    1
     4     7     4    1
     5     4     5    1
     6     5     6    1
     7     4     3    1
     8     3     1    1
     9     1     2    3
    10     2    11    1
    11    11    12    1
    12    12    13   ar
    13    13    14   ar
    14    14    15   ar
    15    15    16    1
    16    15    17   ar
    17    17    18   ar
    18    18    12   ar
@<TRIPOS>MOLECULE
*****
 18 18 0 0 0
SMALL
GASTEIGER

@<TRIPOS>ATOM
      1 C         144.5888  140.8466  163.8235 C.1     1  UNL1       -0.0727
      2 C         144.0416  139.8547  164.8067 C.1     1  UNL1       -0.0849
      3 C         145.1359  141.8385  162.8403 C.3     1  UNL1        0.1498
      4 N         144.3254  143.0416  162.4587 N.3     1  UNL1       -0.2618
      5 C         143.7154  143.1321  161.0913 C.3     1  UNL1        0.0730
      6 C         144.4069  142.5026  159.9185 C.3     1  UNL1        0.0188
      7 C         144.1249  144.1542  163.4445 C.3     1  UNL1        0.0730
      8 C         142.7789  144.8021  163.5808 C.3     1  UNL1        0.0174
      9 C         141.9457  142.9779  165.2325 C.3     1  UNL1        0.0000
     10 C         141.6520  144.0595  164.2356 C.3     1  UNL1        0.0014
     11 C         143.4944  138.8628  165.7899 C.3     1  UNL1        0.1023
     12 C         142.3968  139.2655  166.7296 C.ar    1  UNL1       -0.0091
     13 C         142.6890  139.4494  168.1893 C.ar    1  UNL1       -0.0024
     14 C         141.5914  139.8521  169.1290 C.ar    1  UNL1        0.0111
     15 C         140.2016  140.0710  168.6090 C.ar    1  UNL1        0.0577
     16 CL        139.1040  140.4737  169.5487 Cl      1  UNL1       -0.0822
     17 C         139.9094  139.8871  167.1493 C.ar    1  UNL1        0.0111
     18 C         141.0070  139.4844  166.2096 C.ar    1  UNL1       -0.0024
@<TRIPOS>BOND
     1     9    10    1
     2    10     8    1
     3     8     7    1
     4     7     4    1
     5     4     5    1
     6     5     6    1
     7     4     3    1
     8     3     1    1
     9     1     2    3
    10     2    11    1
    11    11    12    1
    12    12    13   ar
    13    13    14   ar
    14    14    15   ar
    15    15    16    1
    16    15    17   ar
    17    17    18   ar
    18    18    12   ar
