@<TRIPOS>MOLECULE
*****
 32 36 0 0 0
SMALL
GASTEIGER

@<TRIPOS>ATOM
      1 O         138.3796  140.6901  160.1456 O.3     1  UNL1       -0.4453
      2 O         138.2655  142.9898  158.9422 O.2     1  UNL1       -0.2447
      3 C         138.7686  142.1367  160.0689 C.2     1  UNL1        0.3458
      4 C         139.6605  142.7304  161.1187 C.ar    1  UNL1        0.1283
      5 C         141.1565  142.8201  161.0567 C.ar    1  UNL1        0.2121
      6 N         141.6336  143.4837  162.3145 N.ar    1  UNL1       -0.2989
      7 C         140.4324  143.8041  163.1538 C.ar    1  UNL1        0.0626
      8 C         140.2915  144.4596  164.4956 C.ar    1  UNL1        0.0173
      9 C         138.9312  144.6495  165.0983 C.ar    1  UNL1        0.0015
     10 C         137.7117  144.1840  164.3593 C.ar    1  UNL1        0.0001
     11 C         137.8526  143.5284  163.0175 C.ar    1  UNL1        0.0018
     12 C         139.2130  143.3385  162.4148 C.ar    1  UNL1        0.0266
     13 C         143.1001  143.7104  162.5330 C.3     1  UNL1        0.1127
     14 C         144.0896  143.2736  161.4937 C.3     1  UNL1        0.0719
     15 C         143.6126  142.6100  160.2359 C.3     1  UNL1        0.2091
     16 O         142.1460  142.3833  160.0174 O.3     1  UNL1       -0.4611
     17 C         139.2909  139.7028  160.8126 C.3     1  UNL1        0.2087
     18 C         139.3292  139.6097  162.3092 C.3     1  UNL1        0.0466
     19 C         138.0950  139.8999  163.1106 C.3     1  UNL1        0.0211
     20 C         138.1334  139.8069  164.6072 C.3     1  UNL1        0.0722
     21 N         139.4060  139.4235  165.3025 N.3     1  UNL1       -0.2727
     22 C         140.6403  139.1333  164.5011 C.3     1  UNL1        0.0722
     23 C         140.6019  139.2264  163.0045 C.3     1  UNL1        0.0211
     24 C         139.4444  139.3304  166.7991 C.3     1  UNL1        0.0721
     25 C         139.7937  140.5383  167.6169 C.3     1  UNL1        0.0164
     26 C         140.3480  141.8291  167.0908 C.3     1  UNL1        0.0018
     27 C         140.5469  142.7561  168.2532 C.3     1  UNL1        0.0056
     28 C         140.1156  142.0383  169.4977 C.3     1  UNL1        0.0366
     29 C         139.6501  140.6676  169.1044 C.3     1  UNL1        0.0069
     30 C         140.1448  142.5936  170.8908 C.2     1  UNL1        0.0500
     31 O         141.2623  142.2264  171.8214 O.co2   1  UNL1       -0.5492
     32 O         139.0563  143.5163  171.3533 O.co2   1  UNL1       -0.5492
@<TRIPOS>UNITY_ATOM_ATTR
31 1
charge -1
@<TRIPOS>BOND
     1     2     3    2
     2     3     1    1
     3     1    17    1
     4    17    18    1
     5    18    19    1
     6    19    20    1
     7    20    21    1
     8    21    24    1
     9    24    25    1
    10    25    26    1
    11    26    27    1
    12    27    28    1
    13    28    30    1
    14    30    31   ar
    15    30    32   ar
    16    28    29    1
    17    21    22    1
    18    22    23    1
    19     3     4    1
    20     4     5   ar
    21     5     6   ar
    22     6     7   ar
    23     7     8   ar
    24     8     9   ar
    25     9    10   ar
    26    10    11   ar
    27    11    12   ar
    28     6    13    1
    29    13    14    1
    30    14    15    1
    31    15    16    1
    32    23    18    1
    33    12     4   ar
    34    29    25    1
    35    16     5    1
    36    12     7   ar
@<TRIPOS>MOLECULE
*****
 32 36 0 0 0
SMALL
GASTEIGER

@<TRIPOS>ATOM
      1 O         140.1160  138.2282  160.6318 O.3     1  UNL1       -0.4453
      2 O         138.1427  139.5536  159.5833 O.2     1  UNL1       -0.2447
      3 C         138.9824  139.2000  160.7750 C.2     1  UNL1        0.3458
      4 C         138.6885  139.8182  162.1097 C.ar    1  UNL1        0.1283
      5 C         138.3921  141.2664  162.3645 C.ar    1  UNL1        0.2121
      6 N         138.1598  141.4399  163.8362 N.ar    1  UNL1       -0.2989
      7 C         138.3126  140.0991  164.4909 C.ar    1  UNL1        0.0626
      8 C         138.1965  139.6613  165.9209 C.ar    1  UNL1        0.0173
      9 C         138.4070  138.2212  166.2838 C.ar    1  UNL1        0.0015
     10 C         138.7338  137.2189  165.2167 C.ar    1  UNL1        0.0001
     11 C         138.8499  137.6567  163.7867 C.ar    1  UNL1        0.0018
     12 C         138.6394  139.0968  163.4239 C.ar    1  UNL1        0.0266
     13 C         137.8392  142.7966  164.3900 C.3     1  UNL1        0.1127
     14 C         137.7508  143.9797  163.4721 C.3     1  UNL1        0.0719
     15 C         137.9831  143.8061  162.0004 C.3     1  UNL1        0.2091
     16 O         138.3038  142.4495  161.4466 O.3     1  UNL1       -0.4611
     17 C         141.5332  138.7075  160.7406 C.3     1  UNL1        0.2087
     18 C         142.0043  139.3761  161.9979 C.3     1  UNL1        0.0466
     19 C         142.2854  138.5573  163.2228 C.3     1  UNL1        0.0211
     20 C         142.7566  139.2259  164.4802 C.3     1  UNL1        0.0722
     21 N         142.9467  140.7134  164.5127 N.3     1  UNL1       -0.2727
     22 C         142.6656  141.5323  163.2878 C.3     1  UNL1        0.0722
     23 C         142.1944  140.8637  162.0304 C.3     1  UNL1        0.0211
     24 C         143.4179  141.3820  165.7700 C.3     1  UNL1        0.0721
     25 C         142.4207  141.9422  166.7405 C.3     1  UNL1        0.0164
     26 C         140.9851  142.2605  166.4444 C.3     1  UNL1        0.0018
     27 C         140.3612  142.7975  167.6984 C.3     1  UNL1        0.0056
     28 C         141.4112  142.8111  168.7694 C.3     1  UNL1        0.0366
     29 C         142.6841  142.2825  168.1774 C.3     1  UNL1        0.0069
     30 C         141.2217  143.2723  170.1841 C.2     1  UNL1        0.0500
     31 O         142.1574  142.8022  171.2580 O.co2   1  UNL1       -0.5492
     32 O         140.0963  144.2037  170.5249 O.co2   1  UNL1       -0.5492
@<TRIPOS>UNITY_ATOM_ATTR
31 1
charge -1
@<TRIPOS>BOND
     1     2     3    2
     2     3     1    1
     3     1    17    1
     4    17    18    1
     5    18    19    1
     6    19    20    1
     7    20    21    1
     8    21    24    1
     9    24    25    1
    10    25    26    1
    11    26    27    1
    12    27    28    1
    13    28    30    1
    14    30    31   ar
    15    30    32   ar
    16    28    29    1
    17    21    22    1
    18    22    23    1
    19     3     4    1
    20     4     5   ar
    21     5     6   ar
    22     6     7   ar
    23     7     8   ar
    24     8     9   ar
    25     9    10   ar
    26    10    11   ar
    27    11    12   ar
    28     6    13    1
    29    13    14    1
    30    14    15    1
    31    15    16    1
    32    23    18    1
    33    12     4   ar
    34    29    25    1
    35    16     5    1
    36    12     7   ar
@<TRIPOS>MOLECULE
*****
 32 36 0 0 0
SMALL
GASTEIGER

@<TRIPOS>ATOM
      1 O         140.3751  139.0558  160.3644 O.3     1  UNL1       -0.4453
      2 O         140.3387  141.4131  159.2727 O.2     1  UNL1       -0.2447
      3 C         140.6045  140.5350  160.4595 C.2     1  UNL1        0.3458
      4 C         141.0996  141.1364  161.7414 C.ar    1  UNL1        0.1283
      5 C         140.5511  142.3621  162.4100 C.ar    1  UNL1        0.2121
      6 N         141.3427  142.6008  163.6615 N.ar    1  UNL1       -0.2989
      7 C         142.3803  141.5227  163.7666 C.ar    1  UNL1        0.0626
      8 C         143.4425  141.2481  164.7894 C.ar    1  UNL1        0.0173
      9 C         144.3544  140.0686  164.6256 C.ar    1  UNL1        0.0015
     10 C         144.2042  139.1635  163.4389 C.ar    1  UNL1        0.0001
     11 C         143.1420  139.4380  162.4160 C.ar    1  UNL1        0.0018
     12 C         142.2300  140.6176  162.5798 C.ar    1  UNL1        0.0266
     13 C         141.0163  143.7691  164.5439 C.3     1  UNL1        0.1127
     14 C         139.8985  144.6986  164.1747 C.3     1  UNL1        0.0719
     15 C         139.1069  144.4599  162.9231 C.3     1  UNL1        0.2091
     16 O         139.4333  143.2917  162.0407 O.3     1  UNL1       -0.4611
     17 C         139.2218  138.4275  161.0889 C.3     1  UNL1        0.2087
     18 C         139.1068  138.5652  162.5782 C.3     1  UNL1        0.0466
     19 C         139.8758  137.6440  163.4782 C.3     1  UNL1        0.0211
     20 C         139.7608  137.7818  164.9674 C.3     1  UNL1        0.0722
     21 N         138.8769  138.8408  165.5567 N.3     1  UNL1       -0.2727
     22 C         138.1080  139.7620  164.6566 C.3     1  UNL1        0.0722
     23 C         138.2229  139.6242  163.1674 C.3     1  UNL1        0.0211
     24 C         138.7620  138.9785  167.0459 C.3     1  UNL1        0.0721
     25 C         139.4355  140.1204  167.7477 C.3     1  UNL1        0.0164
     26 C         140.3966  141.0918  167.1291 C.3     1  UNL1        0.0018
     27 C         140.8214  142.0631  168.1903 C.3     1  UNL1        0.0056
     28 C         140.1228  141.6920  169.4647 C.3     1  UNL1        0.0366
     29 C         139.2663  140.4913  169.1912 C.3     1  UNL1        0.0069
     30 C         140.2571  142.3976  170.7815 C.2     1  UNL1        0.0500
     31 O         141.4658  142.1631  171.6383 O.co2   1  UNL1       -0.5492
     32 O         139.1827  143.3379  171.2416 O.co2   1  UNL1       -0.5492
@<TRIPOS>UNITY_ATOM_ATTR
31 1
charge -1
@<TRIPOS>BOND
     1     2     3    2
     2     3     1    1
     3     1    17    1
     4    17    18    1
     5    18    19    1
     6    19    20    1
     7    20    21    1
     8    21    24    1
     9    24    25    1
    10    25    26    1
    11    26    27    1
    12    27    28    1
    13    28    30    1
    14    30    31   ar
    15    30    32   ar
    16    28    29    1
    17    21    22    1
    18    22    23    1
    19     3     4    1
    20     4     5   ar
    21     5     6   ar
    22     6     7   ar
    23     7     8   ar
    24     8     9   ar
    25     9    10   ar
    26    10    11   ar
    27    11    12   ar
    28     6    13    1
    29    13    14    1
    30    14    15    1
    31    15    16    1
    32    23    18    1
    33    12     4   ar
    34    29    25    1
    35    16     5    1
    36    12     7   ar
@<TRIPOS>MOLECULE
*****
 32 36 0 0 0
SMALL
GASTEIGER

@<TRIPOS>ATOM
      1 O         137.6819  139.2987  160.9433 O.3     1  UNL1       -0.4453
      2 O         137.6561  140.3195  158.5544 O.2     1  UNL1       -0.2447
      3 C         137.9308  140.4564  160.0227 C.2     1  UNL1        0.3458
      4 C         138.4543  141.7511  160.5702 C.ar    1  UNL1        0.1283
      5 C         139.2271  142.7839  159.8046 C.ar    1  UNL1        0.2121
      6 N         139.5473  143.9113  160.7407 N.ar    1  UNL1       -0.2989
      7 C         138.9724  143.5754  162.0849 C.ar    1  UNL1        0.0626
      8 C         138.9767  144.3127  163.3911 C.ar    1  UNL1        0.0173
      9 C         138.3056  143.7148  164.5920 C.ar    1  UNL1        0.0015
     10 C         137.6300  142.3797  164.4866 C.ar    1  UNL1        0.0001
     11 C         137.6257  141.6424  163.1803 C.ar    1  UNL1        0.0018
     12 C         138.2969  142.2402  161.9795 C.ar    1  UNL1        0.0266
     13 C         140.3210  145.0983  160.2483 C.3     1  UNL1        0.1127
     14 C         140.7745  145.1577  158.8197 C.3     1  UNL1        0.0719
     15 C         140.4543  144.0303  157.8836 C.3     1  UNL1        0.2091
     16 O         139.6806  142.8434  158.3761 O.3     1  UNL1       -0.4611
     17 C         138.8245  138.4338  161.3866 C.3     1  UNL1        0.2087
     18 C         139.5074  138.7054  162.6942 C.3     1  UNL1        0.0466
     19 C         138.9116  138.1936  163.9721 C.3     1  UNL1        0.0211
     20 C         139.5945  138.4651  165.2797 C.3     1  UNL1        0.0722
     21 N         140.8734  139.2486  165.3095 N.3     1  UNL1       -0.2727
     22 C         141.4692  139.7604  164.0316 C.3     1  UNL1        0.0722
     23 C         140.7862  139.4888  162.7240 C.3     1  UNL1        0.0211
     24 C         141.5563  139.5201  166.6171 C.3     1  UNL1        0.0721
     25 C         141.1223  140.6802  167.4631 C.3     1  UNL1        0.0164
     26 C         140.6767  142.0210  166.9592 C.3     1  UNL1        0.0018
     27 C         140.3367  142.8727  168.1463 C.3     1  UNL1        0.0056
     28 C         140.5721  142.0583  169.3837 C.3     1  UNL1        0.0366
     29 C         141.0576  140.7033  168.9615 C.3     1  UNL1        0.0069
     30 C         140.3593  142.5182  170.7955 C.2     1  UNL1        0.0500
     31 O         139.1872  143.3919  171.1312 O.co2   1  UNL1       -0.5492
     32 O         141.3187  142.1043  171.8718 O.co2   1  UNL1       -0.5492
@<TRIPOS>UNITY_ATOM_ATTR
31 1
charge -1
@<TRIPOS>BOND
     1     2     3    2
     2     3     1    1
     3     1    17    1
     4    17    18    1
     5    18    19    1
     6    19    20    1
     7    20    21    1
     8    21    24    1
     9    24    25    1
    10    25    26    1
    11    26    27    1
    12    27    28    1
    13    28    30    1
    14    30    31   ar
    15    30    32   ar
    16    28    29    1
    17    21    22    1
    18    22    23    1
    19     3     4    1
    20     4     5   ar
    21     5     6   ar
    22     6     7   ar
    23     7     8   ar
    24     8     9   ar
    25     9    10   ar
    26    10    11   ar
    27    11    12   ar
    28     6    13    1
    29    13    14    1
    30    14    15    1
    31    15    16    1
    32    23    18    1
    33    12     4   ar
    34    29    25    1
    35    16     5    1
    36    12     7   ar
@<TRIPOS>MOLECULE
*****
 32 36 0 0 0
SMALL
GASTEIGER

@<TRIPOS>ATOM
      1 O         144.0145  141.2191  160.5835 O.3     1  UNL1       -0.4453
      2 O         143.7729  138.9379  159.3639 O.2     1  UNL1       -0.2447
      3 C         143.4911  139.8139  160.5485 C.2     1  UNL1        0.3458
      4 C         142.6859  139.2846  161.6981 C.ar    1  UNL1        0.1283
      5 C         141.2469  138.8644  161.6471 C.ar    1  UNL1        0.2121
      6 N         140.8500  138.4027  163.0180 N.ar    1  UNL1       -0.2989
      7 C         142.0438  138.5375  163.9162 C.ar    1  UNL1        0.0626
      8 C         142.2442  138.2344  165.3715 C.ar    1  UNL1        0.0173
      9 C         143.5792  138.4764  166.0111 C.ar    1  UNL1        0.0015
     10 C         144.7139  139.0215  165.1953 C.ar    1  UNL1        0.0001
     11 C         144.5135  139.3246  163.7400 C.ar    1  UNL1        0.0018
     12 C         143.1784  139.0826  163.1005 C.ar    1  UNL1        0.0266
     13 C         139.4529  137.9191  163.2713 C.3     1  UNL1        0.1127
     14 C         138.4526  137.8972  162.1537 C.3     1  UNL1        0.0719
     15 C         138.8495  138.3589  160.7828 C.3     1  UNL1        0.2091
     16 O         140.2466  138.8425  160.5295 O.3     1  UNL1       -0.4611
     17 C         143.0657  142.3691  160.7482 C.3     1  UNL1        0.2087
     18 C         142.3882  142.5996  162.0665 C.3     1  UNL1        0.0466
     19 C         143.2080  142.8470  163.2980 C.3     1  UNL1        0.0211
     20 C         142.5306  143.0775  164.6163 C.3     1  UNL1        0.0722
     21 N         141.0332  143.0605  164.7031 N.3     1  UNL1       -0.2727
     22 C         140.2133  142.8131  163.4716 C.3     1  UNL1        0.0722
     23 C         140.8908  142.5827  162.1533 C.3     1  UNL1        0.0211
     24 C         140.3557  143.2910  166.0214 C.3     1  UNL1        0.0721
     25 C         140.2591  142.1759  167.0200 C.3     1  UNL1        0.0164
     26 C         139.9563  140.7396  166.7112 C.3     1  UNL1        0.0018
     27 C         139.9583  139.9773  168.0031 C.3     1  UNL1        0.0056
     28 C         140.2623  140.9426  169.1103 C.3     1  UNL1        0.0366
     29 C         140.4482  142.3014  168.5028 C.3     1  UNL1        0.0069
     30 C         140.3628  140.6077  170.5690 C.2     1  UNL1        0.0500
     31 O         139.5150  139.5139  171.1476 O.co2   1  UNL1       -0.5492
     32 O         141.3110  141.3668  171.4492 O.co2   1  UNL1       -0.5492
@<TRIPOS>UNITY_ATOM_ATTR
31 1
charge -1
@<TRIPOS>BOND
     1     2     3    2
     2     3     1    1
     3     1    17    1
     4    17    18    1
     5    18    19    1
     6    19    20    1
     7    20    21    1
     8    21    24    1
     9    24    25    1
    10    25    26    1
    11    26    27    1
    12    27    28    1
    13    28    30    1
    14    30    31   ar
    15    30    32   ar
    16    28    29    1
    17    21    22    1
    18    22    23    1
    19     3     4    1
    20     4     5   ar
    21     5     6   ar
    22     6     7   ar
    23     7     8   ar
    24     8     9   ar
    25     9    10   ar
    26    10    11   ar
    27    11    12   ar
    28     6    13    1
    29    13    14    1
    30    14    15    1
    31    15    16    1
    32    23    18    1
    33    12     4   ar
    34    29    25    1
    35    16     5    1
    36    12     7   ar
@<TRIPOS>MOLECULE
*****
 32 36 0 0 0
SMALL
GASTEIGER

@<TRIPOS>ATOM
      1 O         137.2639  138.9004  161.5350 O.3     1  UNL1       -0.4453
      2 O         137.5959  140.1095  159.2595 O.2     1  UNL1       -0.2447
      3 C         137.9360  139.9597  160.7128 C.2     1  UNL1        0.3458
      4 C         138.9483  140.8692  161.3438 C.ar    1  UNL1        0.1283
      5 C         140.3924  140.9857  160.9552 C.ar    1  UNL1        0.2121
      6 N         141.0307  142.0103  161.8454 N.ar    1  UNL1       -0.2989
      7 C         139.9812  142.5271  162.7843 C.ar    1  UNL1        0.0626
      8 C         140.0312  143.5487  163.8814 C.ar    1  UNL1        0.0173
      9 C         138.7941  143.8651  164.6685 C.ar    1  UNL1        0.0015
     10 C         137.5071  143.1598  164.3585 C.ar    1  UNL1        0.0001
     11 C         137.4571  142.1381  163.2614 C.ar    1  UNL1        0.0018
     12 C         138.6942  141.8218  162.4743 C.ar    1  UNL1        0.0266
     13 C         142.4852  142.3404  161.6862 C.3     1  UNL1        0.1127
     14 C         143.3014  141.6459  160.6366 C.3     1  UNL1        0.0719
     15 C         142.6631  140.6212  159.7464 C.3     1  UNL1        0.2091
     16 O         141.2086  140.2911  159.9057 O.3     1  UNL1       -0.4611
     17 C         138.0620  137.7508  162.0749 C.3     1  UNL1        0.2087
     18 C         139.3564  138.0061  162.7886 C.3     1  UNL1        0.0466
     19 C         139.3506  138.6343  164.1507 C.3     1  UNL1        0.0211
     20 C         140.6450  138.8896  164.8644 C.3     1  UNL1        0.0722
     21 N         141.9452  138.5166  164.2161 N.3     1  UNL1       -0.2727
     22 C         141.9510  137.8884  162.8540 C.3     1  UNL1        0.0722
     23 C         140.6566  137.6332  162.1403 C.3     1  UNL1        0.0211
     24 C         143.2396  138.7719  164.9298 C.3     1  UNL1        0.0721
     25 C         143.9700  140.0649  164.7189 C.3     1  UNL1        0.0164
     26 C         145.2319  140.2459  163.9286 C.3     1  UNL1        0.0018
     27 C         145.6086  141.6969  163.9825 C.3     1  UNL1        0.0056
     28 C         144.5794  142.4126  164.8062 C.3     1  UNL1        0.0366
     29 C         143.5667  141.4040  165.2613 C.3     1  UNL1        0.0069
     30 C         144.5654  143.8794  165.1197 C.2     1  UNL1        0.0500
     31 O         143.7164  144.8119  164.3075 O.co2   1  UNL1       -0.5492
     32 O         145.4005  144.4138  166.2453 O.co2   1  UNL1       -0.5492
@<TRIPOS>UNITY_ATOM_ATTR
31 1
charge -1
@<TRIPOS>BOND
     1     2     3    2
     2     3     1    1
     3     1    17    1
     4    17    18    1
     5    18    19    1
     6    19    20    1
     7    20    21    1
     8    21    24    1
     9    24    25    1
    10    25    26    1
    11    26    27    1
    12    27    28    1
    13    28    30    1
    14    30    31   ar
    15    30    32   ar
    16    28    29    1
    17    21    22    1
    18    22    23    1
    19     3     4    1
    20     4     5   ar
    21     5     6   ar
    22     6     7   ar
    23     7     8   ar
    24     8     9   ar
    25     9    10   ar
    26    10    11   ar
    27    11    12   ar
    28     6    13    1
    29    13    14    1
    30    14    15    1
    31    15    16    1
    32    23    18    1
    33    12     4   ar
    34    29    25    1
    35    16     5    1
    36    12     7   ar
@<TRIPOS>MOLECULE
*****
 32 36 0 0 0
SMALL
GASTEIGER

@<TRIPOS>ATOM
      1 O         142.8918  144.7522  161.8505 O.3     1  UNL1       -0.4453
      2 O         141.9412  144.8875  159.4364 O.2     1  UNL1       -0.2447
      3 C         141.8176  144.4221  160.8572 C.2     1  UNL1        0.3458
      4 C         140.6197  143.6268  161.2844 C.ar    1  UNL1        0.1283
      5 C         140.0204  142.4685  160.5432 C.ar    1  UNL1        0.2121
      6 N         138.8411  141.9760  161.3285 N.ar    1  UNL1       -0.2989
      7 C         138.7116  142.8298  162.5550 C.ar    1  UNL1        0.0626
      8 C         137.7347  142.8101  163.6931 C.ar    1  UNL1        0.0173
      9 C         137.8571  143.8106  164.8039 C.ar    1  UNL1        0.0015
     10 C         138.9563  144.8309  164.7766 C.ar    1  UNL1        0.0001
     11 C         139.9332  144.8506  163.6385 C.ar    1  UNL1        0.0018
     12 C         139.8108  143.8501  162.5277 C.ar    1  UNL1        0.0266
     13 C         138.0376  140.8137  160.8253 C.3     1  UNL1        0.1127
     14 C         138.4133  140.1438  159.5369 C.3     1  UNL1        0.0719
     15 C         139.5926  140.6364  158.7515 C.3     1  UNL1        0.2091
     16 O         140.3961  141.7987  159.2547 O.3     1  UNL1       -0.4611
     17 C         143.8568  143.6920  162.2918 C.3     1  UNL1        0.2087
     18 C         143.3960  142.5880  163.1967 C.3     1  UNL1        0.0466
     19 C         143.1797  141.2091  162.6475 C.3     1  UNL1        0.0211
     20 C         142.7189  140.1051  163.5524 C.3     1  UNL1        0.0722
     21 N         142.4742  140.3801  165.0066 N.3     1  UNL1       -0.2727
     22 C         142.6905  141.7591  165.5557 C.3     1  UNL1        0.0722
     23 C         143.1514  142.8630  164.6508 C.3     1  UNL1        0.0211
     24 C         142.0134  139.2762  165.9115 C.3     1  UNL1        0.0721
     25 C         141.6001  139.5843  167.3201 C.3     1  UNL1        0.0164
     26 C         142.4698  139.4768  168.5376 C.3     1  UNL1        0.0018
     27 C         141.6519  139.8801  169.7286 C.3     1  UNL1        0.0056
     28 C         140.2767  140.2368  169.2472 C.3     1  UNL1        0.0366
     29 C         140.2448  140.0540  167.7587 C.3     1  UNL1        0.0069
     30 C         139.1342  140.6958  170.1038 C.2     1  UNL1        0.0500
     31 O         137.9936  139.7658  170.3941 O.co2   1  UNL1       -0.5492
     32 O         139.1322  142.0847  170.6703 O.co2   1  UNL1       -0.5492
@<TRIPOS>UNITY_ATOM_ATTR
31 1
charge -1
@<TRIPOS>BOND
     1     2     3    2
     2     3     1    1
     3     1    17    1
     4    17    18    1
     5    18    19    1
     6    19    20    1
     7    20    21    1
     8    21    24    1
     9    24    25    1
    10    25    26    1
    11    26    27    1
    12    27    28    1
    13    28    30    1
    14    30    31   ar
    15    30    32   ar
    16    28    29    1
    17    21    22    1
    18    22    23    1
    19     3     4    1
    20     4     5   ar
    21     5     6   ar
    22     6     7   ar
    23     7     8   ar
    24     8     9   ar
    25     9    10   ar
    26    10    11   ar
    27    11    12   ar
    28     6    13    1
    29    13    14    1
    30    14    15    1
    31    15    16    1
    32    23    18    1
    33    12     4   ar
    34    29    25    1
    35    16     5    1
    36    12     7   ar
@<TRIPOS>MOLECULE
*****
 32 36 0 0 0
SMALL
GASTEIGER

@<TRIPOS>ATOM
      1 O         141.6925  145.0081  160.3985 O.3     1  UNL1       -0.4453
      2 O         139.6908  145.0792  158.7438 O.2     1  UNL1       -0.2447
      3 C         140.3034  144.5862  160.0213 C.2     1  UNL1        0.3458
      4 C         139.5269  143.6714  160.9213 C.ar    1  UNL1        0.1283
      5 C         138.9000  142.3677  160.5248 C.ar    1  UNL1        0.2121
      6 N         138.2266  141.7903  161.7344 N.ar    1  UNL1       -0.2989
      7 C         138.4373  142.7372  162.8785 C.ar    1  UNL1        0.0626
      8 C         138.0012  142.6909  164.3130 C.ar    1  UNL1        0.0173
      9 C         138.3688  143.8073  165.2449 C.ar    1  UNL1        0.0015
     10 C         139.1724  144.9699  164.7424 C.ar    1  UNL1        0.0001
     11 C         139.6085  145.0161  163.3080 C.ar    1  UNL1        0.0018
     12 C         139.2410  143.8998  162.3760 C.ar    1  UNL1        0.0266
     13 C         137.5085  140.4769  161.6377 C.3     1  UNL1        0.1127
     14 C         137.4639  139.7409  160.3314 C.3     1  UNL1        0.0719
     15 C         138.1373  140.3183  159.1218 C.3     1  UNL1        0.2091
     16 O         138.8553  141.6317  159.2185 O.3     1  UNL1       -0.4611
     17 C         142.7330  143.9727  160.7074 C.3     1  UNL1        0.2087
     18 C         142.9015  143.4746  162.1122 C.3     1  UNL1        0.0466
     19 C         143.4288  144.3922  163.1752 C.3     1  UNL1        0.0211
     20 C         143.5973  143.8940  164.5800 C.3     1  UNL1        0.0722
     21 N         143.2385  142.4783  164.9218 N.3     1  UNL1       -0.2727
     22 C         142.7112  141.5607  163.8589 C.3     1  UNL1        0.0722
     23 C         142.5427  142.0588  162.4541 C.3     1  UNL1        0.0211
     24 C         143.4070  141.9801  166.3266 C.3     1  UNL1        0.0721
     25 C         142.2601  142.0527  167.2907 C.3     1  UNL1        0.0164
     26 C         140.8190  141.7903  166.9678 C.3     1  UNL1        0.0018
     27 C         140.0212  141.9758  168.2245 C.3     1  UNL1        0.0056
     28 C         140.9693  142.3527  169.3240 C.3     1  UNL1        0.0366
     29 C         142.3530  142.4002  168.7469 C.3     1  UNL1        0.0069
     30 C         140.5987  142.6329  170.7502 C.2     1  UNL1        0.0500
     31 O         141.5095  142.2003  171.8607 O.co2   1  UNL1       -0.5492
     32 O         139.3173  143.3458  171.0660 O.co2   1  UNL1       -0.5492
@<TRIPOS>UNITY_ATOM_ATTR
31 1
charge -1
@<TRIPOS>BOND
     1     2     3    2
     2     3     1    1
     3     1    17    1
     4    17    18    1
     5    18    19    1
     6    19    20    1
     7    20    21    1
     8    21    24    1
     9    24    25    1
    10    25    26    1
    11    26    27    1
    12    27    28    1
    13    28    30    1
    14    30    31   ar
    15    30    32   ar
    16    28    29    1
    17    21    22    1
    18    22    23    1
    19     3     4    1
    20     4     5   ar
    21     5     6   ar
    22     6     7   ar
    23     7     8   ar
    24     8     9   ar
    25     9    10   ar
    26    10    11   ar
    27    11    12   ar
    28     6    13    1
    29    13    14    1
    30    14    15    1
    31    15    16    1
    32    23    18    1
    33    12     4   ar
    34    29    25    1
    35    16     5    1
    36    12     7   ar
@<TRIPOS>MOLECULE
*****
 32 36 0 0 0
SMALL
GASTEIGER

@<TRIPOS>ATOM
      1 O         142.7123  139.5229  160.3671 O.3     1  UNL1       -0.4453
      2 O         140.7037  140.7653  159.2847 O.2     1  UNL1       -0.2447
      3 C         141.6088  140.5347  160.4585 C.2     1  UNL1        0.3458
      4 C         141.4104  141.3159  161.7236 C.ar    1  UNL1        0.1283
      5 C         142.3135  142.3941  162.2449 C.ar    1  UNL1        0.2121
      6 N         141.7352  142.9006  163.5329 N.ar    1  UNL1       -0.2989
      7 C         140.4746  142.1354  163.8076 C.ar    1  UNL1        0.0626
      8 C         139.4836  142.2039  164.9315 C.ar    1  UNL1        0.0173
      9 C         138.2919  141.2931  164.9372 C.ar    1  UNL1        0.0015
     10 C         138.0912  140.3137  163.8190 C.ar    1  UNL1        0.0001
     11 C         139.0821  140.2451  162.6950 C.ar    1  UNL1        0.0018
     12 C         140.2738  141.1560  162.6894 C.ar    1  UNL1        0.0266
     13 C         142.4311  143.9931  164.2892 C.3     1  UNL1        0.1127
     14 C         143.7054  144.5792  163.7575 C.3     1  UNL1        0.0719
     15 C         144.2838  144.0727  162.4694 C.3     1  UNL1        0.2091
     16 O         143.5878  142.9802  161.7132 O.3     1  UNL1       -0.4611
     17 C         142.6679  138.2860  161.2145 C.3     1  UNL1        0.2087
     18 C         142.7898  138.3936  162.7056 C.3     1  UNL1        0.0466
     19 C         143.9605  139.1082  163.3129 C.3     1  UNL1        0.0211
     20 C         144.0823  139.2159  164.8041 C.3     1  UNL1        0.0722
     21 N         143.0334  138.6089  165.6880 N.3     1  UNL1       -0.2727
     22 C         141.8627  137.8943  165.0808 C.3     1  UNL1        0.0722
     23 C         141.7409  137.7866  163.5896 C.3     1  UNL1        0.0211
     24 C         143.1552  138.7165  167.1792 C.3     1  UNL1        0.0721
     25 C         142.3076  139.6988  167.9320 C.3     1  UNL1        0.0164
     26 C         140.8794  140.0439  167.6302 C.3     1  UNL1        0.0018
     27 C         140.4284  141.0668  168.6304 C.3     1  UNL1        0.0056
     28 C         141.5779  141.3538  169.5503 C.3     1  UNL1        0.0366
     29 C         142.7393  140.5083  169.1186 C.3     1  UNL1        0.0069
     30 C         141.5677  142.3171  170.7000 C.2     1  UNL1        0.0500
     31 O         140.6032  142.1235  171.8323 O.co2   1  UNL1       -0.5492
     32 O         142.5221  143.4742  170.7174 O.co2   1  UNL1       -0.5492
@<TRIPOS>UNITY_ATOM_ATTR
31 1
charge -1
@<TRIPOS>BOND
     1     2     3    2
     2     3     1    1
     3     1    17    1
     4    17    18    1
     5    18    19    1
     6    19    20    1
     7    20    21    1
     8    21    24    1
     9    24    25    1
    10    25    26    1
    11    26    27    1
    12    27    28    1
    13    28    30    1
    14    30    31   ar
    15    30    32   ar
    16    28    29    1
    17    21    22    1
    18    22    23    1
    19     3     4    1
    20     4     5   ar
    21     5     6   ar
    22     6     7   ar
    23     7     8   ar
    24     8     9   ar
    25     9    10   ar
    26    10    11   ar
    27    11    12   ar
    28     6    13    1
    29    13    14    1
    30    14    15    1
    31    15    16    1
    32    23    18    1
    33    12     4   ar
    34    29    25    1
    35    16     5    1
    36    12     7   ar
