@<TRIPOS>MOLECULE
*****
 27 30 0 0 0
SMALL
GASTEIGER

@<TRIPOS>ATOM
      1 C         138.4629  145.2111  165.8751 C.3     1  UNL1        0.0523
      2 C         138.4320  144.4338  164.5926 C.ar    1  UNL1        0.0650
      3 C         137.8083  143.0700  164.5571 C.ar    1  UNL1        0.0492
      4 C         137.7774  142.2927  163.2746 C.ar    1  UNL1        0.1362
      5 N         138.3703  142.8790  162.0276 N.ar    1  UNL1       -0.1988
      6 C         138.9939  144.2428  162.0633 C.ar    1  UNL1        0.2180
      7 N         139.0248  145.0201  163.3457 N.ar    1  UNL1       -0.2181
      8 N         137.1538  140.9289  163.2390 N.pl3   1  UNL1       -0.2978
      9 H         136.2339  140.8169  162.9066 H       1  UNL1        0.1536
     10 C         137.9316  139.7360  163.7099 C.ar    1  UNL1        0.0494
     11 C         138.1518  139.5156  165.1771 C.ar    1  UNL1        0.0146
     12 C         138.9297  138.3226  165.6480 C.ar    1  UNL1        0.0013
     13 C         139.4874  137.3499  164.6516 C.ar    1  UNL1        0.0001
     14 C         139.2672  137.5703  163.1843 C.ar    1  UNL1        0.0013
     15 C         138.4893  138.7633  162.7134 C.ar    1  UNL1        0.0146
     16 N         139.5867  144.8292  160.8164 N.pl3   1  UNL1       -0.2990
     17 H         139.0379  144.9147  160.0035 H       1  UNL1        0.1500
     18 C         141.0157  145.2853  160.8080 C.3     1  UNL1        0.1166
     19 C         142.1167  144.3079  161.0959 C.ar    1  UNL1        0.0007
     20 C         142.5968  143.3806  160.0193 C.ar    1  UNL1        0.0007
     21 C         143.6977  142.4033  160.3071 C.ar    1  UNL1        0.0399
     22 C         144.3185  142.3534  161.6718 C.ar    1  UNL1        0.1764
     23 C         143.8383  143.2808  162.7485 C.ar    1  UNL1        0.1762
     24 C         142.7374  144.2581  162.4606 C.ar    1  UNL1        0.0376
     25 O         144.6352  143.0034  163.9886 O.3     1  UNL1       -0.4346
     26 C         145.6079  141.9045  163.6783 C.3     1  UNL1        0.4294
     27 O         145.4122  141.5028  162.2464 O.3     1  UNL1       -0.4346
@<TRIPOS>BOND
     1     1     2    1
     2     2     3   ar
     3     3     4   ar
     4     4     8    1
     5     8    10    1
     6    10    11   ar
     7    11    12   ar
     8    12    13   ar
     9    13    14   ar
    10    14    15   ar
    11     4     5   ar
    12     5     6   ar
    13     6    16    1
    14    16    18    1
    15    18    19    1
    16    19    20   ar
    17    20    21   ar
    18    21    22   ar
    19    22    23   ar
    20    23    24   ar
    21    23    25    1
    22    25    26    1
    23    26    27    1
    24     6     7   ar
    25     7     2   ar
    26    15    10   ar
    27    24    19   ar
    28    27    22    1
    29     8     9    1
    30    16    17    1
@<TRIPOS>MOLECULE
*****
 27 30 0 0 0
SMALL
GASTEIGER

@<TRIPOS>ATOM
      1 C         140.7800  137.2927  163.1855 C.3     1  UNL1        0.0523
      2 C         139.8976  138.2495  163.9309 C.ar    1  UNL1        0.0650
      3 C         139.9686  138.3249  165.4274 C.ar    1  UNL1        0.0492
      4 C         139.0861  139.2818  166.1728 C.ar    1  UNL1        0.1362
      5 N         138.1326  140.1632  165.4219 N.ar    1  UNL1       -0.1988
      6 C         138.0616  140.0878  163.9254 C.ar    1  UNL1        0.2180
      7 N         138.9441  139.1309  163.1800 N.ar    1  UNL1       -0.2181
      8 N         139.1571  139.3572  167.6692 N.pl3   1  UNL1       -0.2978
      9 H         138.9035  138.5774  168.2140 H       1  UNL1        0.1536
     10 C         139.6145  140.6209  168.3356 C.ar    1  UNL1        0.0494
     11 C         139.3182  140.8527  169.7876 C.ar    1  UNL1        0.0146
     12 C         139.7756  142.1163  170.4540 C.ar    1  UNL1        0.0013
     13 C         140.5294  143.1482  169.6683 C.ar    1  UNL1        0.0001
     14 C         140.8257  142.9163  168.2163 C.ar    1  UNL1        0.0013
     15 C         140.3683  141.6527  167.5499 C.ar    1  UNL1        0.0146
     16 N         137.1081  140.9691  163.1744 N.pl3   1  UNL1       -0.2990
     17 H         136.1390  140.8043  163.2281 H       1  UNL1        0.1500
     18 C         137.6312  142.1018  162.3416 C.3     1  UNL1        0.1166
     19 C         138.7722  142.9367  162.8428 C.ar    1  UNL1        0.0007
     20 C         138.5855  143.8205  164.0402 C.ar    1  UNL1        0.0007
     21 C         139.7264  144.6554  164.5414 C.ar    1  UNL1        0.0399
     22 C         141.0541  144.6064  163.8451 C.ar    1  UNL1        0.1764
     23 C         141.2408  143.7226  162.6476 C.ar    1  UNL1        0.1762
     24 C         140.0999  142.8877  162.1464 C.ar    1  UNL1        0.0376
     25 O         142.6540  143.8810  162.1704 O.3     1  UNL1       -0.4346
     26 C         143.3407  144.8628  163.0730 C.3     1  UNL1        0.4294
     27 O         142.3519  145.3111  164.1080 O.3     1  UNL1       -0.4346
@<TRIPOS>BOND
     1     1     2    1
     2     2     3   ar
     3     3     4   ar
     4     4     8    1
     5     8    10    1
     6    10    11   ar
     7    11    12   ar
     8    12    13   ar
     9    13    14   ar
    10    14    15   ar
    11     4     5   ar
    12     5     6   ar
    13     6    16    1
    14    16    18    1
    15    18    19    1
    16    19    20   ar
    17    20    21   ar
    18    21    22   ar
    19    22    23   ar
    20    23    24   ar
    21    23    25    1
    22    25    26    1
    23    26    27    1
    24     6     7   ar
    25     7     2   ar
    26    15    10   ar
    27    24    19   ar
    28    27    22    1
    29     8     9    1
    30    16    17    1
@<TRIPOS>MOLECULE
*****
 27 30 0 0 0
SMALL
GASTEIGER

@<TRIPOS>ATOM
      1 C         137.6484  140.0160  160.2892 C.3     1  UNL1        0.0523
      2 C         137.7668  140.5147  161.6989 C.ar    1  UNL1        0.0650
      3 C         138.0574  139.5530  162.8127 C.ar    1  UNL1        0.0492
      4 C         138.1759  140.0517  164.2224 C.ar    1  UNL1        0.1362
      5 N         138.0038  141.5122  164.5183 N.ar    1  UNL1       -0.1988
      6 C         137.7132  142.4739  163.4044 C.ar    1  UNL1        0.2180
      7 N         137.5947  141.9751  161.9947 N.ar    1  UNL1       -0.2181
      8 N         138.4665  139.0901  165.3363 N.pl3   1  UNL1       -0.2978
      9 H         137.9193  138.2784  165.4412 H       1  UNL1        0.1536
     10 C         139.5909  139.3650  166.2903 C.ar    1  UNL1        0.0494
     11 C         139.2937  139.8128  167.6907 C.ar    1  UNL1        0.0146
     12 C         140.4181  140.0878  168.6447 C.ar    1  UNL1        0.0013
     13 C         141.8397  139.9149  168.1984 C.ar    1  UNL1        0.0001
     14 C         142.1368  139.4671  166.7980 C.ar    1  UNL1        0.0013
     15 C         141.0124  139.1921  165.8440 C.ar    1  UNL1        0.0146
     16 N         137.5411  143.9343  163.7002 N.pl3   1  UNL1       -0.2990
     17 H         136.7280  144.4040  163.4042 H       1  UNL1        0.1500
     18 C         138.6077  144.6791  164.4469 C.3     1  UNL1        0.1166
     19 C         140.0414  144.2538  164.3299 C.ar    1  UNL1        0.0007
     20 C         140.6617  143.4052  165.3998 C.ar    1  UNL1        0.0007
     21 C         142.0954  142.9799  165.2828 C.ar    1  UNL1        0.0399
     22 C         142.9087  143.4033  164.0957 C.ar    1  UNL1        0.1764
     23 C         142.2884  144.2519  163.0256 C.ar    1  UNL1        0.1762
     24 C         140.8547  144.6772  163.1426 C.ar    1  UNL1        0.0376
     25 O         143.3305  144.5131  161.9788 O.3     1  UNL1       -0.4346
     26 C         144.5949  143.8259  162.4019 C.3     1  UNL1        0.4294
     27 O         144.3342  143.1400  163.7102 O.3     1  UNL1       -0.4346
@<TRIPOS>BOND
     1     1     2    1
     2     2     3   ar
     3     3     4   ar
     4     4     8    1
     5     8    10    1
     6    10    11   ar
     7    11    12   ar
     8    12    13   ar
     9    13    14   ar
    10    14    15   ar
    11     4     5   ar
    12     5     6   ar
    13     6    16    1
    14    16    18    1
    15    18    19    1
    16    19    20   ar
    17    20    21   ar
    18    21    22   ar
    19    22    23   ar
    20    23    24   ar
    21    23    25    1
    22    25    26    1
    23    26    27    1
    24     6     7   ar
    25     7     2   ar
    26    15    10   ar
    27    24    19   ar
    28    27    22    1
    29     8     9    1
    30    16    17    1
@<TRIPOS>MOLECULE
*****
 27 30 0 0 0
SMALL
GASTEIGER

@<TRIPOS>ATOM
      1 C         140.2887  140.2613  170.7214 C.3     1  UNL1        0.0523
      2 C         140.1812  140.3770  169.2297 C.ar    1  UNL1        0.0650
      3 C         141.0827  141.3153  168.4834 C.ar    1  UNL1        0.0492
      4 C         140.9753  141.4310  166.9918 C.ar    1  UNL1        0.1362
      5 N         139.9664  140.6084  166.2463 N.ar    1  UNL1       -0.1988
      6 C         139.0650  139.6701  166.9927 C.ar    1  UNL1        0.2180
      7 N         139.1724  139.5544  168.4843 N.ar    1  UNL1       -0.2181
      8 N         141.8767  142.3693  166.2454 N.pl3   1  UNL1       -0.2978
      9 H         141.6930  143.3365  166.2501 H       1  UNL1        0.1536
     10 C         143.0581  141.8340  165.4920 C.ar    1  UNL1        0.0494
     11 C         143.2427  140.3532  165.3403 C.ar    1  UNL1        0.0146
     12 C         144.4242  139.8179  164.5868 C.ar    1  UNL1        0.0013
     13 C         145.4210  140.7634  163.9850 C.ar    1  UNL1        0.0001
     14 C         145.2365  142.2442  164.1367 C.ar    1  UNL1        0.0013
     15 C         144.0550  142.7795  164.8902 C.ar    1  UNL1        0.0146
     16 N         138.0561  138.8475  166.2474 N.pl3   1  UNL1       -0.2990
     17 H         137.1099  139.1190  166.2379 H       1  UNL1        0.1500
     18 C         138.4890  137.6112  165.5165 C.3     1  UNL1        0.1166
     19 C         139.3351  137.7266  164.2831 C.ar    1  UNL1        0.0007
     20 C         140.8160  137.5039  164.3660 C.ar    1  UNL1        0.0007
     21 C         141.6620  137.6192  163.1327 C.ar    1  UNL1        0.0399
     22 C         141.0270  137.9574  161.8166 C.ar    1  UNL1        0.1764
     23 C         139.5459  138.1802  161.7336 C.ar    1  UNL1        0.1762
     24 C         138.6999  138.0648  162.9669 C.ar    1  UNL1        0.0376
     25 O         139.2040  138.4980  160.3081 O.3     1  UNL1       -0.4346
     26 C         140.4738  138.4717  159.5100 C.3     1  UNL1        0.4294
     27 O         141.6005  138.1376  160.4423 O.3     1  UNL1       -0.4346
@<TRIPOS>BOND
     1     1     2    1
     2     2     3   ar
     3     3     4   ar
     4     4     8    1
     5     8    10    1
     6    10    11   ar
     7    11    12   ar
     8    12    13   ar
     9    13    14   ar
    10    14    15   ar
    11     4     5   ar
    12     5     6   ar
    13     6    16    1
    14    16    18    1
    15    18    19    1
    16    19    20   ar
    17    20    21   ar
    18    21    22   ar
    19    22    23   ar
    20    23    24   ar
    21    23    25    1
    22    25    26    1
    23    26    27    1
    24     6     7   ar
    25     7     2   ar
    26    15    10   ar
    27    24    19   ar
    28    27    22    1
    29     8     9    1
    30    16    17    1
@<TRIPOS>MOLECULE
*****
 27 30 0 0 0
SMALL
GASTEIGER

@<TRIPOS>ATOM
      1 C         140.2573  140.5043  170.5337 C.3     1  UNL1        0.0523
      2 C         140.1635  140.5423  169.0371 C.ar    1  UNL1        0.0650
      3 C         141.0259  141.4886  168.2554 C.ar    1  UNL1        0.0492
      4 C         140.9321  141.5266  166.7588 C.ar    1  UNL1        0.1362
      5 N         139.9759  140.6184  166.0439 N.ar    1  UNL1       -0.1988
      6 C         139.1136  139.6722  166.8256 C.ar    1  UNL1        0.2180
      7 N         139.2075  139.6342  168.3222 N.ar    1  UNL1       -0.2181
      8 N         141.7944  142.4728  165.9771 N.pl3   1  UNL1       -0.2978
      9 H         141.5418  143.4214  165.9022 H       1  UNL1        0.1536
     10 C         143.0414  141.9737  165.3094 C.ar    1  UNL1        0.0494
     11 C         143.2700  140.4995  165.1533 C.ar    1  UNL1        0.0146
     12 C         144.5171  140.0004  164.4857 C.ar    1  UNL1        0.0013
     13 C         145.5356  140.9756  163.9741 C.ar    1  UNL1        0.0001
     14 C         145.3070  142.4498  164.1302 C.ar    1  UNL1        0.0013
     15 C         144.0599  142.9489  164.7978 C.ar    1  UNL1        0.0146
     16 N         138.1575  138.7640  166.1108 N.pl3   1  UNL1       -0.2990
     17 H         137.1931  138.9616  166.1167 H       1  UNL1        0.1500
     18 C         138.6708  137.5546  165.3869 C.3     1  UNL1        0.1166
     19 C         139.3861  137.7115  164.0777 C.ar    1  UNL1        0.0007
     20 C         138.6040  137.9402  162.8185 C.ar    1  UNL1        0.0007
     21 C         139.3192  138.0971  161.5094 C.ar    1  UNL1        0.0399
     22 C         140.8167  138.0253  161.4596 C.ar    1  UNL1        0.1764
     23 C         141.5989  137.7966  162.7189 C.ar    1  UNL1        0.1762
     24 C         140.8836  137.6397  164.0280 C.ar    1  UNL1        0.0376
     25 O         143.0556  137.7727  162.3619 O.3     1  UNL1       -0.4346
     26 C         143.1736  137.9866  160.8819 C.3     1  UNL1        0.4294
     27 O         141.7899  138.1427  160.3243 O.3     1  UNL1       -0.4346
@<TRIPOS>BOND
     1     1     2    1
     2     2     3   ar
     3     3     4   ar
     4     4     8    1
     5     8    10    1
     6    10    11   ar
     7    11    12   ar
     8    12    13   ar
     9    13    14   ar
    10    14    15   ar
    11     4     5   ar
    12     5     6   ar
    13     6    16    1
    14    16    18    1
    15    18    19    1
    16    19    20   ar
    17    20    21   ar
    18    21    22   ar
    19    22    23   ar
    20    23    24   ar
    21    23    25    1
    22    25    26    1
    23    26    27    1
    24     6     7   ar
    25     7     2   ar
    26    15    10   ar
    27    24    19   ar
    28    27    22    1
    29     8     9    1
    30    16    17    1
@<TRIPOS>MOLECULE
*****
 27 30 0 0 0
SMALL
GASTEIGER

@<TRIPOS>ATOM
      1 C         139.8273  146.0989  161.9705 C.3     1  UNL1        0.0523
      2 C         140.0200  144.8648  162.8010 C.ar    1  UNL1        0.0650
      3 C         138.8999  143.8781  162.9490 C.ar    1  UNL1        0.0492
      4 C         139.0925  142.6440  163.7795 C.ar    1  UNL1        0.1362
      5 N         140.4052  142.3964  164.4620 N.ar    1  UNL1       -0.1988
      6 C         141.5252  143.3831  164.3138 C.ar    1  UNL1        0.2180
      7 N         141.3326  144.6172  163.4833 N.ar    1  UNL1       -0.2181
      8 N         137.9725  141.6573  163.9277 N.pl3   1  UNL1       -0.2978
      9 H         137.0447  141.9355  163.7510 H       1  UNL1        0.1536
     10 C         138.2659  140.2467  164.3449 C.ar    1  UNL1        0.0494
     11 C         138.7359  139.2468  163.3305 C.ar    1  UNL1        0.0146
     12 C         139.0293  137.8362  163.7477 C.ar    1  UNL1        0.0013
     13 C         138.8527  137.4254  165.1795 C.ar    1  UNL1        0.0001
     14 C         138.3827  138.4253  166.1940 C.ar    1  UNL1        0.0013
     15 C         138.0893  139.8359  165.7768 C.ar    1  UNL1        0.0146
     16 N         142.8379  143.1356  164.9962 N.pl3   1  UNL1       -0.2990
     17 H         143.5348  143.8310  164.9898 H       1  UNL1        0.1500
     18 C         143.0888  141.8287  165.6882 C.3     1  UNL1        0.1166
     19 C         142.6318  141.6292  167.1030 C.ar    1  UNL1        0.0007
     20 C         143.3390  142.3292  168.2253 C.ar    1  UNL1        0.0007
     21 C         142.8821  142.1298  169.6400 C.ar    1  UNL1        0.0399
     22 C         141.7178  141.2304  169.9323 C.ar    1  UNL1        0.1764
     23 C         141.0106  140.5303  168.8100 C.ar    1  UNL1        0.1762
     24 C         141.4675  140.7297  167.3953 C.ar    1  UNL1        0.0376
     25 O         139.9018  139.7106  169.4004 O.3     1  UNL1       -0.4346
     26 C         139.9238  139.9040  170.8877 C.3     1  UNL1        0.4294
     27 O         141.0462  140.8433  171.2165 O.3     1  UNL1       -0.4346
@<TRIPOS>BOND
     1     1     2    1
     2     2     3   ar
     3     3     4   ar
     4     4     8    1
     5     8    10    1
     6    10    11   ar
     7    11    12   ar
     8    12    13   ar
     9    13    14   ar
    10    14    15   ar
    11     4     5   ar
    12     5     6   ar
    13     6    16    1
    14    16    18    1
    15    18    19    1
    16    19    20   ar
    17    20    21   ar
    18    21    22   ar
    19    22    23   ar
    20    23    24   ar
    21    23    25    1
    22    25    26    1
    23    26    27    1
    24     6     7   ar
    25     7     2   ar
    26    15    10   ar
    27    24    19   ar
    28    27    22    1
    29     8     9    1
    30    16    17    1
@<TRIPOS>MOLECULE
*****
 27 30 0 0 0
SMALL
GASTEIGER

@<TRIPOS>ATOM
      1 C         139.1712  142.6389  158.5596 C.3     1  UNL1        0.0523
      2 C         138.6438  142.3148  159.9258 C.ar    1  UNL1        0.0650
      3 C         138.4604  140.8845  160.3391 C.ar    1  UNL1        0.0492
      4 C         137.9330  140.5603  161.7054 C.ar    1  UNL1        0.1362
      5 N         137.5890  141.6664  162.6585 N.ar    1  UNL1       -0.1988
      6 C         137.7724  143.0966  162.2452 C.ar    1  UNL1        0.2180
      7 N         138.2997  143.4208  160.8789 N.ar    1  UNL1       -0.2181
      8 N         137.7497  139.1301  162.1187 N.pl3   1  UNL1       -0.2978
      9 H         136.9232  138.6510  161.8806 H       1  UNL1        0.1536
     10 C         138.8254  138.4299  162.8948 C.ar    1  UNL1        0.0494
     11 C         138.6765  138.2343  164.3745 C.ar    1  UNL1        0.0146
     12 C         139.7523  137.5341  165.1506 C.ar    1  UNL1        0.0013
     13 C         140.9771  137.0293  164.4469 C.ar    1  UNL1        0.0001
     14 C         141.1260  137.2248  162.9672 C.ar    1  UNL1        0.0013
     15 C         140.0503  137.9251  162.1912 C.ar    1  UNL1        0.0146
     16 N         137.4283  144.2027  163.1982 N.pl3   1  UNL1       -0.2990
     17 H         136.5437  144.6325  163.1547 H       1  UNL1        0.1500
     18 C         138.4322  144.6540  164.2173 C.3     1  UNL1        0.1166
     19 C         139.8510  144.1738  164.1363 C.ar    1  UNL1        0.0007
     20 C         140.3414  143.1199  165.0842 C.ar    1  UNL1        0.0007
     21 C         141.7601  142.6397  165.0032 C.ar    1  UNL1        0.0399
     22 C         142.6885  143.2135  163.9742 C.ar    1  UNL1        0.1764
     23 C         142.1982  144.2675  163.0262 C.ar    1  UNL1        0.1762
     24 C         140.7794  144.7477  163.1072 C.ar    1  UNL1        0.0376
     25 O         143.3354  144.6446  162.1237 O.3     1  UNL1       -0.4346
     26 C         144.5286  143.8237  162.5140 C.3     1  UNL1        0.4294
     27 O         144.1288  142.9392  163.6576 O.3     1  UNL1       -0.4346
@<TRIPOS>BOND
     1     1     2    1
     2     2     3   ar
     3     3     4   ar
     4     4     8    1
     5     8    10    1
     6    10    11   ar
     7    11    12   ar
     8    12    13   ar
     9    13    14   ar
    10    14    15   ar
    11     4     5   ar
    12     5     6   ar
    13     6    16    1
    14    16    18    1
    15    18    19    1
    16    19    20   ar
    17    20    21   ar
    18    21    22   ar
    19    22    23   ar
    20    23    24   ar
    21    23    25    1
    22    25    26    1
    23    26    27    1
    24     6     7   ar
    25     7     2   ar
    26    15    10   ar
    27    24    19   ar
    28    27    22    1
    29     8     9    1
    30    16    17    1
@<TRIPOS>MOLECULE
*****
 27 30 0 0 0
SMALL
GASTEIGER

@<TRIPOS>ATOM
      1 C         141.3456  144.9398  159.9535 C.3     1  UNL1        0.0523
      2 C         141.4078  144.6968  161.4324 C.ar    1  UNL1        0.0650
      3 C         142.6432  144.1050  162.0438 C.ar    1  UNL1        0.0492
      4 C         142.7054  143.8620  163.5226 C.ar    1  UNL1        0.1362
      5 N         141.5323  144.2106  164.3901 N.ar    1  UNL1       -0.1988
      6 C         140.2970  144.8024  163.7786 C.ar    1  UNL1        0.2180
      7 N         140.2348  145.0454  162.2998 N.ar    1  UNL1       -0.2181
      8 N         143.9407  143.2702  164.1341 N.pl3   1  UNL1       -0.2978
      9 H         144.7339  143.8336  164.2844 H       1  UNL1        0.1536
     10 C         143.9674  141.8201  164.5167 C.ar    1  UNL1        0.0494
     11 C         144.9654  140.8958  163.8845 C.ar    1  UNL1        0.0146
     12 C         144.9921  139.4457  164.2670 C.ar    1  UNL1        0.0013
     13 C         144.0207  138.9197  165.2819 C.ar    1  UNL1        0.0001
     14 C         143.0227  139.8440  165.9141 C.ar    1  UNL1        0.0013
     15 C         142.9960  141.2941  165.5315 C.ar    1  UNL1        0.0146
     16 N         139.1240  145.1510  164.6460 N.pl3   1  UNL1       -0.2990
     17 H         139.1220  145.9930  165.1562 H       1  UNL1        0.1500
     18 C         137.9539  144.2169  164.7361 C.3     1  UNL1        0.1166
     19 C         138.1119  142.7770  164.3460 C.ar    1  UNL1        0.0007
     20 C         138.8049  141.8212  165.2711 C.ar    1  UNL1        0.0007
     21 C         138.9630  140.3814  164.8811 C.ar    1  UNL1        0.0399
     22 C         138.4279  139.8975  163.5660 C.ar    1  UNL1        0.1764
     23 C         137.7348  140.8534  162.6409 C.ar    1  UNL1        0.1762
     24 C         137.5768  142.2932  163.0308 C.ar    1  UNL1        0.0376
     25 O         137.3136  140.0926  161.4187 O.3     1  UNL1       -0.4346
     26 C         137.7464  138.6665  161.5885 C.3     1  UNL1        0.4294
     27 O         138.4351  138.5459  162.9156 O.3     1  UNL1       -0.4346
@<TRIPOS>BOND
     1     1     2    1
     2     2     3   ar
     3     3     4   ar
     4     4     8    1
     5     8    10    1
     6    10    11   ar
     7    11    12   ar
     8    12    13   ar
     9    13    14   ar
    10    14    15   ar
    11     4     5   ar
    12     5     6   ar
    13     6    16    1
    14    16    18    1
    15    18    19    1
    16    19    20   ar
    17    20    21   ar
    18    21    22   ar
    19    22    23   ar
    20    23    24   ar
    21    23    25    1
    22    25    26    1
    23    26    27    1
    24     6     7   ar
    25     7     2   ar
    26    15    10   ar
    27    24    19   ar
    28    27    22    1
    29     8     9    1
    30    16    17    1
@<TRIPOS>MOLECULE
*****
 27 30 0 0 0
SMALL
GASTEIGER

@<TRIPOS>ATOM
      1 C         137.8354  143.9645  163.8362 C.3     1  UNL1        0.0523
      2 C         138.5960  142.8972  164.5659 C.ar    1  UNL1        0.0650
      3 C         139.9871  143.1700  165.0564 C.ar    1  UNL1        0.0492
      4 C         140.7477  142.1027  165.7861 C.ar    1  UNL1        0.1362
      5 N         140.1173  140.7627  166.0253 N.ar    1  UNL1       -0.1988
      6 C         138.7262  140.4901  165.5348 C.ar    1  UNL1        0.2180
      7 N         137.9656  141.5574  164.8051 N.ar    1  UNL1       -0.2181
      8 N         142.1388  142.3753  166.2766 N.pl3   1  UNL1       -0.2978
      9 H         142.2763  142.8480  167.1292 H       1  UNL1        0.1536
     10 C         143.3203  141.9279  165.4681 C.ar    1  UNL1        0.0494
     11 C         144.2510  142.9435  164.8746 C.ar    1  UNL1        0.0146
     12 C         145.4326  142.4960  164.0661 C.ar    1  UNL1        0.0013
     13 C         145.6834  141.0328  163.8510 C.ar    1  UNL1        0.0001
     14 C         144.7527  140.0172  164.4445 C.ar    1  UNL1        0.0013
     15 C         143.5711  140.4647  165.2530 C.ar    1  UNL1        0.0146
     16 N         138.0957  139.1502  165.7739 N.pl3   1  UNL1       -0.2990
     17 H         137.2469  139.0869  166.2686 H       1  UNL1        0.1500
     18 C         138.7586  137.9069  165.2594 C.3     1  UNL1        0.1166
     19 C         139.4982  137.9362  163.9547 C.ar    1  UNL1        0.0007
     20 C         138.7393  138.0297  162.6643 C.ar    1  UNL1        0.0007
     21 C         139.4789  138.0590  161.3597 C.ar    1  UNL1        0.0399
     22 C         140.9775  137.9949  161.3455 C.ar    1  UNL1        0.1764
     23 C         141.7365  137.9015  162.6360 C.ar    1  UNL1        0.1762
     24 C         140.9969  137.8721  163.9406 C.ar    1  UNL1        0.0376
     25 O         143.2000  137.8536  162.3106 O.3     1  UNL1       -0.4346
     26 C         143.3455  137.9174  160.8191 C.3     1  UNL1        0.4294
     27 O         141.9719  138.0047  160.2226 O.3     1  UNL1       -0.4346
@<TRIPOS>BOND
     1     1     2    1
     2     2     3   ar
     3     3     4   ar
     4     4     8    1
     5     8    10    1
     6    10    11   ar
     7    11    12   ar
     8    12    13   ar
     9    13    14   ar
    10    14    15   ar
    11     4     5   ar
    12     5     6   ar
    13     6    16    1
    14    16    18    1
    15    18    19    1
    16    19    20   ar
    17    20    21   ar
    18    21    22   ar
    19    22    23   ar
    20    23    24   ar
    21    23    25    1
    22    25    26    1
    23    26    27    1
    24     6     7   ar
    25     7     2   ar
    26    15    10   ar
    27    24    19   ar
    28    27    22    1
    29     8     9    1
    30    16    17    1
