@<TRIPOS>MOLECULE
*****
 33 36 0 0 0
SMALL
GASTEIGER

@<TRIPOS>ATOM
      1 C         142.0860  142.5864  163.1128 C.ar    1  UNL1        0.2035
      2 N         141.4060  141.2826  163.4087 N.ar    1  UNL1       -0.2128
      3 C         141.6067  140.6167  164.7378 C.ar    1  UNL1        0.1130
      4 C         142.4875  141.2547  165.7708 C.ar    1  UNL1        0.1049
      5 C         143.1675  142.5585  165.4748 C.ar    1  UNL1        0.2704
      6 O         144.0483  143.1965  166.5079 O.2     1  UNL1       -0.2663
      7 N         142.9667  143.2244  164.1458 N.ar    1  UNL1       -0.2663
      8 C         143.6468  144.5282  163.8498 C.3     1  UNL1        0.1363
      9 C         142.3109  145.3569  155.4131 C.3     1  UNL1        0.0335
     10 C         141.7716  145.2454  156.8083 C.3     1  UNL1        0.1294
     11 O         140.5777  145.9721  157.3527 O.3     1  UNL1       -0.3548
     12 C         140.3997  145.5634  158.7850 C.3     1  UNL1        0.1434
     13 C         141.4836  144.5840  159.1257 C.3     1  UNL1        0.0460
     14 C         140.5501  144.8805  160.2617 C.3     1  UNL1        0.0254
     15 C         140.7509  144.2146  161.5907 C.3     1  UNL1        0.0937
     16 N         141.8852  143.2523  161.7837 N.pl3   1  UNL1       -0.2795
     17 C         142.8187  142.9558  160.6477 C.3     1  UNL1        0.0937
     18 C         142.6179  143.6217  159.3187 C.3     1  UNL1        0.0254
     19 C         142.3315  144.3875  157.9040 C.3     1  UNL1        0.0807
     20 N         143.5290  143.4906  157.7969 N.3     1  UNL1       -0.3202
     21 H         143.6863  143.0253  158.6908 H       1  UNL1        0.1189
     22 H         144.3492  144.0460  157.5537 H       1  UNL1        0.1189
     23 S         142.6883  140.5888  167.0998 S.3     1  UNL1       -0.0792
     24 C         141.5921  140.6118  168.1234 C.ar    1  UNL1        0.0513
     25 C         140.2518  140.0209  167.8003 C.ar    1  UNL1        0.0095
     26 C         139.1555  140.0439  168.8240 C.ar    1  UNL1        0.0212
     27 C         139.3996  140.6578  170.1706 C.ar    1  UNL1        0.0988
     28 N         140.7399  141.2488  170.4937 N.ar    1  UNL1       -0.2394
     29 C         141.8361  141.2258  169.4701 C.ar    1  UNL1        0.1585
     30 C         143.1764  141.8167  169.7932 C.3     1  UNL1        0.4353
     31 F         144.5167  142.4077  170.1163 F       1  UNL1       -0.1644
     32 F         142.7109  143.1496  169.2865 F       1  UNL1       -0.1644
     33 F         143.6419  140.4839  170.2999 F       1  UNL1       -0.1644
@<TRIPOS>BOND
     1    10     9    1
     2    10    11    1
     3    11    12    1
     4    12    13    1
     5    13    14    1
     6    14    15    1
     7    15    16    1
     8    16     1    1
     9     1     2   ar
    10     2     3   ar
    11     3     4   ar
    12     4    23    1
    13    23    24    1
    14    24    25   ar
    15    25    26   ar
    16    26    27   ar
    17    27    28   ar
    18    28    29   ar
    19    29    30    1
    20    30    31    1
    21    30    32    1
    22    30    33    1
    23     4     5   ar
    24     5     6    2
    25     5     7   ar
    26     7     8    1
    27    16    17    1
    28    17    18    1
    29    13    19    1
    30    19    20    1
    31    19    10    1
    32    18    13    1
    33     7     1   ar
    34    29    24   ar
    35    20    21    1
    36    20    22    1
@<TRIPOS>MOLECULE
*****
 33 36 0 0 0
SMALL
GASTEIGER

@<TRIPOS>ATOM
      1 C         141.2332  143.0085  163.0186 C.ar    1  UNL1        0.2035
      2 N         140.4552  143.6550  164.1261 N.ar    1  UNL1       -0.2128
      3 C         140.7625  143.3172  165.5550 C.ar    1  UNL1        0.1130
      4 C         141.8478  142.3329  165.8762 C.ar    1  UNL1        0.1049
      5 C         142.6258  141.6863  164.7686 C.ar    1  UNL1        0.2704
      6 O         143.7111  140.7019  165.0898 O.2     1  UNL1       -0.2663
      7 N         142.3185  142.0241  163.3398 N.ar    1  UNL1       -0.2663
      8 C         143.0965  141.3776  162.2322 C.3     1  UNL1        0.1363
      9 C         140.7884  145.9222  155.3816 C.3     1  UNL1        0.0335
     10 C         140.3894  145.0507  156.5353 C.3     1  UNL1        0.1294
     11 O         139.2876  144.0327  156.5315 O.3     1  UNL1       -0.3548
     12 C         139.2394  143.3969  157.8894 C.3     1  UNL1        0.1434
     13 C         140.3114  144.0218  158.7322 C.3     1  UNL1        0.0460
     14 C         139.5109  142.9714  159.4434 C.3     1  UNL1        0.0254
     15 C         139.8182  142.6337  160.8721 C.3     1  UNL1        0.0937
     16 N         140.9260  143.3463  161.5897 N.pl3   1  UNL1       -0.2795
     17 C         141.7264  144.3967  160.8786 C.3     1  UNL1        0.0937
     18 C         141.4192  144.7345  159.4498 C.3     1  UNL1        0.0254
     19 C         141.0221  145.0439  157.8953 C.3     1  UNL1        0.0807
     20 N         142.1648  145.9076  158.3404 N.3     1  UNL1       -0.3202
     21 H         142.3929  145.6957  159.3117 H       1  UNL1        0.1189
     22 H         141.9005  146.8895  158.2596 H       1  UNL1        0.1189
     23 S         142.1551  141.9950  167.3050 S.3     1  UNL1       -0.0792
     24 C         141.0781  141.4488  168.1948 C.ar    1  UNL1        0.0513
     25 C         140.0924  140.4548  167.6559 C.ar    1  UNL1        0.0095
     26 C         139.0155  139.9085  168.5457 C.ar    1  UNL1        0.0212
     27 C         138.9242  140.3562  169.9744 C.ar    1  UNL1        0.0988
     28 N         139.9099  141.3502  170.5133 N.ar    1  UNL1       -0.2394
     29 C         140.9868  141.8965  169.6235 C.ar    1  UNL1        0.1585
     30 C         141.9725  142.8905  170.1624 C.3     1  UNL1        0.4353
     31 F         142.9582  143.8845  170.7013 F       1  UNL1       -0.1644
     32 F         141.0376  144.0090  169.8093 F       1  UNL1       -0.1644
     33 F         142.9075  141.7719  170.5155 F       1  UNL1       -0.1644
@<TRIPOS>BOND
     1    10     9    1
     2    10    11    1
     3    11    12    1
     4    12    13    1
     5    13    14    1
     6    14    15    1
     7    15    16    1
     8    16     1    1
     9     1     2   ar
    10     2     3   ar
    11     3     4   ar
    12     4    23    1
    13    23    24    1
    14    24    25   ar
    15    25    26   ar
    16    26    27   ar
    17    27    28   ar
    18    28    29   ar
    19    29    30    1
    20    30    31    1
    21    30    32    1
    22    30    33    1
    23     4     5   ar
    24     5     6    2
    25     5     7   ar
    26     7     8    1
    27    16    17    1
    28    17    18    1
    29    13    19    1
    30    19    20    1
    31    19    10    1
    32    18    13    1
    33     7     1   ar
    34    29    24   ar
    35    20    21    1
    36    20    22    1
@<TRIPOS>MOLECULE
*****
 33 36 0 0 0
SMALL
GASTEIGER

@<TRIPOS>ATOM
      1 C         140.5189  141.9177  163.5018 C.ar    1  UNL1        0.2035
      2 N         139.5930  142.3190  164.6115 N.ar    1  UNL1       -0.2128
      3 C         139.7872  141.7596  165.9897 C.ar    1  UNL1        0.1130
      4 C         140.9074  140.7988  166.2581 C.ar    1  UNL1        0.1049
      5 C         141.8334  140.3974  165.1483 C.ar    1  UNL1        0.2704
      6 O         142.9536  139.4367  165.4167 O.2     1  UNL1       -0.2663
      7 N         141.6391  140.9569  163.7702 N.ar    1  UNL1       -0.2663
      8 C         142.5651  140.5556  162.6604 C.3     1  UNL1        0.1363
      9 C         140.5629  146.0861  156.4566 C.3     1  UNL1        0.0335
     10 C         140.1350  144.9978  157.3959 C.3     1  UNL1        0.1294
     11 O         139.1396  143.9161  157.0971 O.3     1  UNL1       -0.3548
     12 C         139.0167  143.0497  158.3155 C.3     1  UNL1        0.1434
     13 C         139.9362  143.5960  159.3673 C.3     1  UNL1        0.0460
     14 C         139.1713  142.3796  159.7976 C.3     1  UNL1        0.0254
     15 C         139.3655  141.8202  161.1758 C.3     1  UNL1        0.0937
     16 N         140.3247  142.4772  162.1236 N.pl3   1  UNL1       -0.2795
     17 C         141.0896  143.6936  161.6933 C.3     1  UNL1        0.0937
     18 C         140.8953  144.2530  160.3152 C.3     1  UNL1        0.0254
     19 C         140.6273  144.7999  158.7989 C.3     1  UNL1        0.0807
     20 N         141.6339  145.6557  159.5090 N.3     1  UNL1       -0.3202
     21 H         141.7833  145.2943  160.4510 H       1  UNL1        0.1189
     22 H         141.2879  146.6137  159.5633 H       1  UNL1        0.1189
     23 S         141.1016  140.2393  167.6362 S.3     1  UNL1       -0.0792
     24 C         141.7253  141.0839  168.7074 C.ar    1  UNL1        0.0513
     25 C         143.0522  141.7409  168.4671 C.ar    1  UNL1        0.0095
     26 C         143.6759  142.5856  169.5384 C.ar    1  UNL1        0.0212
     27 C         142.9727  142.7732  170.8500 C.ar    1  UNL1        0.0988
     28 N         141.6458  142.1162  171.0903 N.ar    1  UNL1       -0.2394
     29 C         141.0221  141.2716  170.0191 C.ar    1  UNL1        0.1585
     30 C         139.6953  140.6146  170.2594 C.3     1  UNL1        0.4353
     31 F         138.3684  139.9576  170.4998 F       1  UNL1       -0.1644
     32 F         140.3945  139.3527  170.6703 F       1  UNL1       -0.1644
     33 F         138.9960  141.8764  169.8486 F       1  UNL1       -0.1644
@<TRIPOS>BOND
     1    10     9    1
     2    10    11    1
     3    11    12    1
     4    12    13    1
     5    13    14    1
     6    14    15    1
     7    15    16    1
     8    16     1    1
     9     1     2   ar
    10     2     3   ar
    11     3     4   ar
    12     4    23    1
    13    23    24    1
    14    24    25   ar
    15    25    26   ar
    16    26    27   ar
    17    27    28   ar
    18    28    29   ar
    19    29    30    1
    20    30    31    1
    21    30    32    1
    22    30    33    1
    23     4     5   ar
    24     5     6    2
    25     5     7   ar
    26     7     8    1
    27    16    17    1
    28    17    18    1
    29    13    19    1
    30    19    20    1
    31    19    10    1
    32    18    13    1
    33     7     1   ar
    34    29    24   ar
    35    20    21    1
    36    20    22    1
@<TRIPOS>MOLECULE
*****
 33 36 0 0 0
SMALL
GASTEIGER

@<TRIPOS>ATOM
      1 C         140.4082  138.7042  161.5740 C.ar    1  UNL1        0.2035
      2 N         141.7750  138.1962  161.2226 N.ar    1  UNL1       -0.2128
      3 C         142.1719  138.0447  159.7839 C.ar    1  UNL1        0.1130
      4 C         141.2018  138.4013  158.6968 C.ar    1  UNL1        0.1049
      5 C         139.8349  138.9094  159.0483 C.ar    1  UNL1        0.2704
      6 O         138.8648  139.2660  157.9612 O.2     1  UNL1       -0.2663
      7 N         139.4381  139.0608  160.4869 N.ar    1  UNL1       -0.2663
      8 C         138.0712  139.5689  160.8385 C.3     1  UNL1        0.1363
      9 C         139.4275  140.6639  169.4613 C.3     1  UNL1        0.0335
     10 C         139.1317  139.9201  168.1928 C.3     1  UNL1        0.1294
     11 O         138.0823  138.8632  168.0146 O.3     1  UNL1       -0.3548
     12 C         138.1354  138.3925  166.5913 C.3     1  UNL1        0.1434
     13 C         139.2177  139.1586  165.8898 C.3     1  UNL1        0.0460
     14 C         138.5073  138.1676  165.0162 C.3     1  UNL1        0.0254
     15 C         138.9042  138.0161  163.5777 C.3     1  UNL1        0.0937
     16 N         140.0114  138.8557  163.0127 N.pl3   1  UNL1       -0.2795
     17 C         140.7217  139.8467  163.8863 C.3     1  UNL1        0.0937
     18 C         140.3249  139.9982  165.3249 C.3     1  UNL1        0.0254
     19 C         139.8334  140.1027  166.8797 C.3     1  UNL1        0.0807
     20 N         140.9540  141.0610  166.6045 N.3     1  UNL1       -0.3202
     21 H         141.2421  140.9765  165.6297 H       1  UNL1        0.1189
     22 H         141.7438  140.8442  167.2125 H       1  UNL1        0.1189
     23 S         141.5986  138.2499  157.2582 S.3     1  UNL1       -0.0792
     24 C         141.7656  136.8818  156.6664 C.ar    1  UNL1        0.0513
     25 C         142.8702  135.9871  157.1454 C.ar    1  UNL1        0.0095
     26 C         143.0372  134.6189  156.5534 C.ar    1  UNL1        0.0212
     27 C         142.0996  134.1455  155.4826 C.ar    1  UNL1        0.0988
     28 N         140.9950  135.0401  155.0036 N.ar    1  UNL1       -0.2394
     29 C         140.8280  136.4082  155.5954 C.ar    1  UNL1        0.1585
     30 C         139.7234  137.3029  155.1164 C.3     1  UNL1        0.4353
     31 F         138.6188  138.1976  154.6374 F       1  UNL1       -0.1644
     32 F         138.8198  136.7580  156.1825 F       1  UNL1       -0.1644
     33 F         140.6271  137.8478  154.0504 F       1  UNL1       -0.1644
@<TRIPOS>BOND
     1    10     9    1
     2    10    11    1
     3    11    12    1
     4    12    13    1
     5    13    14    1
     6    14    15    1
     7    15    16    1
     8    16     1    1
     9     1     2   ar
    10     2     3   ar
    11     3     4   ar
    12     4    23    1
    13    23    24    1
    14    24    25   ar
    15    25    26   ar
    16    26    27   ar
    17    27    28   ar
    18    28    29   ar
    19    29    30    1
    20    30    31    1
    21    30    32    1
    22    30    33    1
    23     4     5   ar
    24     5     6    2
    25     5     7   ar
    26     7     8    1
    27    16    17    1
    28    17    18    1
    29    13    19    1
    30    19    20    1
    31    19    10    1
    32    18    13    1
    33     7     1   ar
    34    29    24   ar
    35    20    21    1
    36    20    22    1
@<TRIPOS>MOLECULE
*****
 33 36 0 0 0
SMALL
GASTEIGER

@<TRIPOS>ATOM
      1 C         140.2198  138.8073  161.2619 C.ar    1  UNL1        0.2035
      2 N         141.5481  138.2603  160.8302 N.ar    1  UNL1       -0.2128
      3 C         141.8618  138.1176  159.3702 C.ar    1  UNL1        0.1130
      4 C         140.8471  138.5218  158.3421 C.ar    1  UNL1        0.1049
      5 C         139.5188  139.0688  158.7740 C.ar    1  UNL1        0.2704
      6 O         138.5041  139.4731  157.7458 O.2     1  UNL1       -0.2663
      7 N         139.2052  139.2115  160.2338 N.ar    1  UNL1       -0.2663
      8 C         137.8768  139.7585  160.6656 C.3     1  UNL1        0.1363
      9 C         139.6352  140.7764  169.1861 C.3     1  UNL1        0.0335
     10 C         139.2985  140.0093  167.9419 C.3     1  UNL1        0.1294
     11 O         138.2938  138.9007  167.8344 O.3     1  UNL1       -0.3548
     12 C         138.2816  138.4223  166.4127 C.3     1  UNL1        0.1434
     13 C         139.2788  139.2354  165.6415 C.3     1  UNL1        0.0460
     14 C         138.5656  138.2039  164.8185 C.3     1  UNL1        0.0254
     15 C         138.8793  138.0612  163.3587 C.3     1  UNL1        0.0937
     16 N         139.9062  138.9500  162.7219 N.pl3   1  UNL1       -0.2795
     17 C         140.6194  139.9815  163.5449 C.3     1  UNL1        0.0937
     18 C         140.3057  140.1241  165.0047 C.3     1  UNL1        0.0254
     19 C         139.9072  140.2162  166.5867 C.3     1  UNL1        0.0807
     20 N         140.9596  141.2264  166.2377 N.3     1  UNL1       -0.3202
     21 H         141.1904  141.1488  165.2472 H       1  UNL1        0.1189
     22 H         141.7955  141.0534  166.7961 H       1  UNL1        0.1189
     23 S         141.1607  138.3791  156.8823 S.3     1  UNL1       -0.0792
     24 C         142.5553  138.6245  156.3873 C.ar    1  UNL1        0.0513
     25 C         143.0914  140.0237  156.3186 C.ar    1  UNL1        0.0095
     26 C         144.4860  140.2691  155.8235 C.ar    1  UNL1        0.0212
     27 C         145.3444  139.1152  155.3973 C.ar    1  UNL1        0.0988
     28 N         144.8083  137.7160  155.4661 N.ar    1  UNL1       -0.2394
     29 C         143.4137  137.4706  155.9610 C.ar    1  UNL1        0.1585
     30 C         142.8776  136.0714  156.0298 C.3     1  UNL1        0.4353
     31 F         142.3415  134.6722  156.0985 F       1  UNL1       -0.1644
     32 F         143.3530  135.9590  157.4480 F       1  UNL1       -0.1644
     33 F         142.4023  136.1838  154.6115 F       1  UNL1       -0.1644
@<TRIPOS>BOND
     1    10     9    1
     2    10    11    1
     3    11    12    1
     4    12    13    1
     5    13    14    1
     6    14    15    1
     7    15    16    1
     8    16     1    1
     9     1     2   ar
    10     2     3   ar
    11     3     4   ar
    12     4    23    1
    13    23    24    1
    14    24    25   ar
    15    25    26   ar
    16    26    27   ar
    17    27    28   ar
    18    28    29   ar
    19    29    30    1
    20    30    31    1
    21    30    32    1
    22    30    33    1
    23     4     5   ar
    24     5     6    2
    25     5     7   ar
    26     7     8    1
    27    16    17    1
    28    17    18    1
    29    13    19    1
    30    19    20    1
    31    19    10    1
    32    18    13    1
    33     7     1   ar
    34    29    24   ar
    35    20    21    1
    36    20    22    1
@<TRIPOS>MOLECULE
*****
 33 36 0 0 0
SMALL
GASTEIGER

@<TRIPOS>ATOM
      1 C         139.9501  142.2956  162.9971 C.ar    1  UNL1        0.2035
      2 N         139.4796  143.1965  164.1002 N.ar    1  UNL1       -0.2128
      3 C         139.5089  142.7196  165.5221 C.ar    1  UNL1        0.1130
      4 C         140.0087  141.3417  165.8409 C.ar    1  UNL1        0.1049
      5 C         140.4792  140.4407  164.7377 C.ar    1  UNL1        0.2704
      6 O         140.9790  139.0628  165.0564 O.2     1  UNL1       -0.2663
      7 N         140.4499  140.9177  163.3159 N.ar    1  UNL1       -0.2663
      8 C         140.9204  140.0167  162.2127 C.3     1  UNL1        0.1363
      9 C         141.0801  145.8048  155.6883 C.3     1  UNL1        0.0335
     10 C         140.4086  144.9009  156.6791 C.3     1  UNL1        0.1294
     11 O         139.2256  144.0193  156.4077 O.3     1  UNL1       -0.3548
     12 C         138.8880  143.2933  157.6763 C.3     1  UNL1        0.1434
     13 C         139.8622  143.7262  158.7315 C.3     1  UNL1        0.0460
     14 C         138.8524  142.7243  159.2075 C.3     1  UNL1        0.0254
     15 C         138.8817  142.2475  160.6293 C.3     1  UNL1        0.0937
     16 N         139.9208  142.7725  161.5752 N.pl3   1  UNL1       -0.2795
     17 C         140.9306  143.7744  161.0992 C.3     1  UNL1        0.0937
     18 C         140.9012  144.2512  159.6774 C.3     1  UNL1        0.0254
     19 C         140.8020  144.7198  158.1152 C.3     1  UNL1        0.0807
     20 N         141.9360  145.4108  158.8126 N.3     1  UNL1       -0.3202
     21 H         141.9765  145.1020  159.7839 H       1  UNL1        0.1189
     22 H         141.7894  146.4197  158.7824 H       1  UNL1        0.1189
     23 S         140.0380  140.8648  167.2627 S.3     1  UNL1       -0.0792
     24 C         140.9121  141.5550  168.2673 C.ar    1  UNL1        0.0513
     25 C         140.4321  142.8027  168.9476 C.ar    1  UNL1        0.0095
     26 C         141.3064  143.4929  169.9523 C.ar    1  UNL1        0.0212
     27 C         142.6606  142.9353  170.2767 C.ar    1  UNL1        0.0988
     28 N         143.1406  141.6876  169.5965 N.ar    1  UNL1       -0.2394
     29 C         142.2664  140.9974  168.5918 C.ar    1  UNL1        0.1585
     30 C         142.7464  139.7497  167.9116 C.3     1  UNL1        0.4353
     31 F         143.2264  138.5019  167.2313 F       1  UNL1       -0.1644
     32 F         142.3010  138.9358  169.0902 F       1  UNL1       -0.1644
     33 F         143.1918  140.5636  166.7329 F       1  UNL1       -0.1644
@<TRIPOS>BOND
     1    10     9    1
     2    10    11    1
     3    11    12    1
     4    12    13    1
     5    13    14    1
     6    14    15    1
     7    15    16    1
     8    16     1    1
     9     1     2   ar
    10     2     3   ar
    11     3     4   ar
    12     4    23    1
    13    23    24    1
    14    24    25   ar
    15    25    26   ar
    16    26    27   ar
    17    27    28   ar
    18    28    29   ar
    19    29    30    1
    20    30    31    1
    21    30    32    1
    22    30    33    1
    23     4     5   ar
    24     5     6    2
    25     5     7   ar
    26     7     8    1
    27    16    17    1
    28    17    18    1
    29    13    19    1
    30    19    20    1
    31    19    10    1
    32    18    13    1
    33     7     1   ar
    34    29    24   ar
    35    20    21    1
    36    20    22    1
@<TRIPOS>MOLECULE
*****
 33 36 0 0 0
SMALL
GASTEIGER

@<TRIPOS>ATOM
      1 C         141.4601  143.1719  162.7072 C.ar    1  UNL1        0.2035
      2 N         140.6663  143.7435  163.8443 N.ar    1  UNL1       -0.2128
      3 C         141.0417  143.4176  165.2596 C.ar    1  UNL1        0.1130
      4 C         142.2110  142.5201  165.5376 C.ar    1  UNL1        0.1049
      5 C         143.0048  141.9485  164.4004 C.ar    1  UNL1        0.2704
      6 O         144.1741  141.0509  164.6784 O.2     1  UNL1       -0.2663
      7 N         142.6294  142.2744  162.9852 N.ar    1  UNL1       -0.2663
      8 C         143.4232  141.7028  161.8480 C.3     1  UNL1        0.1363
      9 C         140.5985  146.0754  155.1020 C.3     1  UNL1        0.0335
     10 C         140.2829  145.1846  156.2668 C.3     1  UNL1        0.1294
     11 O         139.2292  144.1175  156.3006 O.3     1  UNL1       -0.3548
     12 C         139.2607  143.4778  157.6570 C.3     1  UNL1        0.1434
     13 C         140.3338  144.1495  158.4615 C.3     1  UNL1        0.0460
     14 C         139.6090  143.0625  159.1984 C.3     1  UNL1        0.0254
     15 C         139.9845  142.7366  160.6136 C.3     1  UNL1        0.0937
     16 N         141.0847  143.4978  161.2919 N.pl3   1  UNL1       -0.2795
     17 C         141.8095  144.5848  160.5551 C.3     1  UNL1        0.0937
     18 C         141.4340  144.9107  159.1399 C.3     1  UNL1        0.0254
     19 C         140.9656  145.2044  157.6023 C.3     1  UNL1        0.0807
     20 N         142.0837  146.1185  158.0075 N.3     1  UNL1       -0.3202
     21 H         142.3572  145.9156  158.9689 H       1  UNL1        0.1189
     22 H         141.7721  147.0874  157.9399 H       1  UNL1        0.1189
     23 S         142.5864  142.1941  166.9528 S.3     1  UNL1       -0.0792
     24 C         141.5406  141.7127  167.9143 C.ar    1  UNL1        0.0513
     25 C         140.9281  142.6672  168.8960 C.ar    1  UNL1        0.0095
     26 C         139.8823  142.1857  169.8575 C.ar    1  UNL1        0.0212
     27 C         139.4489  140.7498  169.8372 C.ar    1  UNL1        0.0988
     28 N         140.0614  139.7954  168.8555 N.ar    1  UNL1       -0.2394
     29 C         141.1072  140.2768  167.8940 C.ar    1  UNL1        0.1585
     30 C         141.7197  139.3223  166.9122 C.3     1  UNL1        0.4353
     31 F         142.3322  138.3679  165.9304 F       1  UNL1       -0.1644
     32 F         142.8300  139.0391  167.8802 F       1  UNL1       -0.1644
     33 F         140.6094  139.6055  165.9442 F       1  UNL1       -0.1644
@<TRIPOS>BOND
     1    10     9    1
     2    10    11    1
     3    11    12    1
     4    12    13    1
     5    13    14    1
     6    14    15    1
     7    15    16    1
     8    16     1    1
     9     1     2   ar
    10     2     3   ar
    11     3     4   ar
    12     4    23    1
    13    23    24    1
    14    24    25   ar
    15    25    26   ar
    16    26    27   ar
    17    27    28   ar
    18    28    29   ar
    19    29    30    1
    20    30    31    1
    21    30    32    1
    22    30    33    1
    23     4     5   ar
    24     5     6    2
    25     5     7   ar
    26     7     8    1
    27    16    17    1
    28    17    18    1
    29    13    19    1
    30    19    20    1
    31    19    10    1
    32    18    13    1
    33     7     1   ar
    34    29    24   ar
    35    20    21    1
    36    20    22    1
@<TRIPOS>MOLECULE
*****
 33 36 0 0 0
SMALL
GASTEIGER

@<TRIPOS>ATOM
      1 C         138.7853  142.5644  160.3684 C.ar    1  UNL1        0.2035
      2 N         137.8922  143.2674  161.3472 N.ar    1  UNL1       -0.2128
      3 C         137.6585  142.6780  162.7066 C.ar    1  UNL1        0.1130
      4 C         138.3179  141.3856  163.0872 C.ar    1  UNL1        0.1049
      5 C         139.2111  140.6826  162.1083 C.ar    1  UNL1        0.2704
      6 O         139.8705  139.3902  162.4889 O.2     1  UNL1       -0.2663
      7 N         139.4447  141.2720  160.7489 N.ar    1  UNL1       -0.2663
      8 C         140.3379  140.5689  159.7701 C.3     1  UNL1        0.1363
      9 C         141.0752  146.7945  153.7446 C.3     1  UNL1        0.0335
     10 C         140.3242  145.7350  154.4951 C.3     1  UNL1        0.1294
     11 O         139.3680  144.7437  153.9010 O.3     1  UNL1       -0.3548
     12 C         138.8503  143.8768  155.0103 C.3     1  UNL1        0.1434
     13 C         139.4864  144.3324  156.2901 C.3     1  UNL1        0.0460
     14 C         138.5415  143.1792  156.4552 C.3     1  UNL1        0.0254
     15 C         138.3079  142.5899  157.8146 C.3     1  UNL1        0.0937
     16 N         139.0191  143.1538  159.0089 N.pl3   1  UNL1       -0.2795
     17 C         139.9640  144.3069  158.8437 C.3     1  UNL1        0.0937
     18 C         140.1976  144.8963  157.4843 C.3     1  UNL1        0.0254
     19 C         140.3974  145.4809  155.9716 C.3     1  UNL1        0.0807
     20 N         141.2345  146.2415  156.9568 N.3     1  UNL1       -0.3202
     21 H         141.0923  145.8582  157.8913 H       1  UNL1        0.1189
     22 H         140.9618  147.2244  156.9474 H       1  UNL1        0.1189
     23 S         138.0842  140.7962  164.4466 S.3     1  UNL1       -0.0792
     24 C         139.1138  140.9650  165.5243 C.ar    1  UNL1        0.0513
     25 C         139.7978  142.2873  165.7076 C.ar    1  UNL1        0.0095
     26 C         140.8274  142.4561  166.7853 C.ar    1  UNL1        0.0212
     27 C         141.1730  141.3026  167.6797 C.ar    1  UNL1        0.0988
     28 N         140.4890  139.9803  167.4964 N.ar    1  UNL1       -0.2394
     29 C         139.4594  139.8115  166.4187 C.ar    1  UNL1        0.1585
     30 C         138.7754  138.4892  166.2354 C.3     1  UNL1        0.4353
     31 F         138.0913  137.1669  166.0521 F       1  UNL1       -0.1644
     32 F         139.8947  138.0333  165.3470 F       1  UNL1       -0.1644
     33 F         137.6560  138.9450  167.1239 F       1  UNL1       -0.1644
@<TRIPOS>BOND
     1    10     9    1
     2    10    11    1
     3    11    12    1
     4    12    13    1
     5    13    14    1
     6    14    15    1
     7    15    16    1
     8    16     1    1
     9     1     2   ar
    10     2     3   ar
    11     3     4   ar
    12     4    23    1
    13    23    24    1
    14    24    25   ar
    15    25    26   ar
    16    26    27   ar
    17    27    28   ar
    18    28    29   ar
    19    29    30    1
    20    30    31    1
    21    30    32    1
    22    30    33    1
    23     4     5   ar
    24     5     6    2
    25     5     7   ar
    26     7     8    1
    27    16    17    1
    28    17    18    1
    29    13    19    1
    30    19    20    1
    31    19    10    1
    32    18    13    1
    33     7     1   ar
    34    29    24   ar
    35    20    21    1
    36    20    22    1
@<TRIPOS>MOLECULE
*****
 33 36 0 0 0
SMALL
GASTEIGER

@<TRIPOS>ATOM
      1 C         142.5698  140.8509  163.5030 C.ar    1  UNL1        0.2035
      2 N         141.3594  141.6121  163.9561 N.ar    1  UNL1       -0.2128
      3 C         140.8483  141.4438  165.3563 C.ar    1  UNL1        0.1130
      4 C         141.5476  140.5141  166.3033 C.ar    1  UNL1        0.1049
      5 C         142.7580  139.7528  165.8500 C.ar    1  UNL1        0.2704
      6 O         143.4573  138.8232  166.7970 O.2     1  UNL1       -0.2663
      7 N         143.2691  139.9212  164.4499 N.ar    1  UNL1       -0.2663
      8 C         144.4796  139.1599  163.9967 C.3     1  UNL1        0.1363
      9 C         144.7717  140.2548  155.6412 C.3     1  UNL1        0.0335
     10 C         144.6455  140.9273  156.9760 C.3     1  UNL1        0.1294
     11 O         145.1341  142.3032  157.3198 O.3     1  UNL1       -0.3548
     12 C         144.7990  142.5682  158.7578 C.3     1  UNL1        0.1434
     13 C         144.1032  141.3561  159.3026 C.3     1  UNL1        0.0460
     14 C         144.2708  142.4634  160.3004 C.3     1  UNL1        0.0254
     15 C         143.7597  142.2950  161.7005 C.3     1  UNL1        0.0937
     16 N         143.0810  141.0193  162.1028 N.pl3   1  UNL1       -0.2795
     17 C         142.9133  139.9120  161.1049 C.3     1  UNL1        0.0937
     18 C         143.4245  140.0804  159.7048 C.3     1  UNL1        0.0254
     19 C         144.0083  140.3420  158.2013 C.3     1  UNL1        0.0807
     20 N         143.3857  138.9815  158.3070 N.3     1  UNL1       -0.3202
     21 H         143.0297  138.8430  159.2528 H       1  UNL1        0.1189
     22 H         144.0864  138.2698  158.0999 H       1  UNL1        0.1189
     23 S         141.0365  140.3457  167.7034 S.3     1  UNL1       -0.0792
     24 C         141.6278  141.1542  168.8199 C.ar    1  UNL1        0.0513
     25 C         142.9280  141.8743  168.6175 C.ar    1  UNL1        0.0095
     26 C         143.5193  142.6828  169.7341 C.ar    1  UNL1        0.0212
     27 C         142.8104  142.7712  171.0530 C.ar    1  UNL1        0.0988
     28 N         141.5102  142.0512  171.2554 N.ar    1  UNL1       -0.2394
     29 C         140.9189  141.2427  170.1389 C.ar    1  UNL1        0.1585
     30 C         139.6186  140.5227  170.3413 C.3     1  UNL1        0.4353
     31 F         138.3184  139.8026  170.5437 F       1  UNL1       -0.1644
     32 F         138.8707  141.7726  169.9833 F       1  UNL1       -0.1644
     33 F         140.3666  139.2727  170.6993 F       1  UNL1       -0.1644
@<TRIPOS>BOND
     1    10     9    1
     2    10    11    1
     3    11    12    1
     4    12    13    1
     5    13    14    1
     6    14    15    1
     7    15    16    1
     8    16     1    1
     9     1     2   ar
    10     2     3   ar
    11     3     4   ar
    12     4    23    1
    13    23    24    1
    14    24    25   ar
    15    25    26   ar
    16    26    27   ar
    17    27    28   ar
    18    28    29   ar
    19    29    30    1
    20    30    31    1
    21    30    32    1
    22    30    33    1
    23     4     5   ar
    24     5     6    2
    25     5     7   ar
    26     7     8    1
    27    16    17    1
    28    17    18    1
    29    13    19    1
    30    19    20    1
    31    19    10    1
    32    18    13    1
    33     7     1   ar
    34    29    24   ar
    35    20    21    1
    36    20    22    1
