@<TRIPOS>MOLECULE
*****
 50 53 0 0 0
SMALL
GASTEIGER

@<TRIPOS>ATOM
      1 C         139.9646  144.2864  163.4473 C.3     1  UNL1        0.1303
      2 O         140.0457  145.6854  162.9124 O.3     1  UNL1       -0.3827
      3 H         139.1520  146.0545  162.8354 H       1  UNL1        0.2104
      4 C         141.2183  143.4910  163.6604 C.3     1  UNL1        0.1028
      5 C         142.7493  143.0176  161.6154 C.2     1  UNL1        0.2671
      6 O         143.3044  144.4080  161.7092 O.2     1  UNL1       -0.2711
      7 N         141.7062  142.5591  162.5910 N.am    1  UNL1       -0.3002
      8 H         141.3419  141.6466  162.5295 H       1  UNL1        0.1496
      9 C         143.2372  142.0858  160.5460 C.3     1  UNL1        0.2893
     10 O         144.0681  140.8922  160.9132 O.3     1  UNL1       -0.4663
     11 C         141.9804  138.7494  161.1362 C.3     1  UNL1        0.0342
     12 C         142.8003  139.1253  162.3347 C.ar    1  UNL1        0.0118
     13 C         142.5763  138.4299  163.6447 C.ar    1  UNL1       -0.0013
     14 C         143.3962  138.8058  164.8432 C.ar    1  UNL1       -0.0004
     15 C         144.4401  139.8772  164.7317 C.ar    1  UNL1       -0.0013
     16 C         144.6640  140.5727  163.4217 C.ar    1  UNL1        0.0118
     17 C         145.7079  141.6441  163.3102 C.3     1  UNL1        0.0342
     18 C         143.8441  140.1967  162.2232 C.ar    1  UNL1        0.1312
     19 C         141.9842  143.6275  164.9429 C.3     1  UNL1        0.0484
     20 C         141.9578  142.5197  165.9538 C.ar    1  UNL1       -0.0204
     21 C         143.0591  142.4008  166.9652 C.ar    1  UNL1       -0.0042
     22 C         143.0326  141.2929  167.9761 C.ar    1  UNL1       -0.0003
     23 C         141.9048  140.3039  167.9756 C.ar    1  UNL1       -0.0000
     24 C         140.8035  140.4228  166.9642 C.ar    1  UNL1       -0.0003
     25 C         140.8300  141.5307  165.9533 C.ar    1  UNL1       -0.0042
     26 C         138.6297  143.6828  163.7692 C.3     1  UNL1        0.0508
     27 C         137.9461  142.7977  162.7694 C.3     1  UNL1        0.0784
     28 N         138.0610  143.0938  161.3034 N.am    1  UNL1       -0.3042
     29 C         139.0858  142.3805  160.4723 C.2     1  UNL1        0.2406
     30 O         139.6397  141.8290  160.6291 O.2     1  UNL1       -0.2733
     31 H         137.4638  143.7564  160.8868 H       1  UNL1        0.1494
     32 C         139.2007  142.6767  159.0063 C.3     1  UNL1        0.1529
     33 N         140.3311  143.5217  158.4982 N.am    1  UNL1       -0.2574
     34 C         141.2335  142.9980  157.4205 C.3     1  UNL1        0.0971
     35 C         142.3638  143.8431  156.9124 C.3     1  UNL1        0.0428
     36 C         142.5918  145.2119  157.4820 C.3     1  UNL1        0.0927
     37 N         141.6894  145.7356  158.5597 N.am    1  UNL1       -0.2887
     38 C         140.5590  144.8906  159.0678 C.2     1  UNL1        0.3043
     39 O         139.6566  145.4143  160.1454 O.2     1  UNL1       -0.2526
     40 H         141.8390  146.6340  158.9335 H       1  UNL1        0.1510
     41 C         138.1853  142.1278  158.0484 C.3     1  UNL1        0.0272
     42 C         137.7487  140.6968  158.1568 C.3     1  UNL1        0.0022
     43 C         137.6065  143.0098  156.9820 C.3     1  UNL1        0.0022
     44 C         137.1476  141.6166  163.2356 C.3     1  UNL1        0.0460
     45 C         137.7612  140.2479  163.2318 C.ar    1  UNL1       -0.0205
     46 C         138.3475  139.6853  164.4927 C.ar    1  UNL1       -0.0042
     47 C         138.9611  138.3165  164.4889 C.ar    1  UNL1       -0.0003
     48 C         138.9884  137.5104  163.2242 C.ar    1  UNL1       -0.0000
     49 C         138.4021  138.0729  161.9634 C.ar    1  UNL1       -0.0003
     50 C         137.7885  139.4417  161.9672 C.ar    1  UNL1       -0.0042
@<TRIPOS>BOND
     1    11    12    1
     2    12    13   ar
     3    13    14   ar
     4    14    15   ar
     5    15    16   ar
     6    16    17    1
     7    16    18   ar
     8    18    10    1
     9    10     9    1
    10     9     5    1
    11     5     6    2
    12     5     7   am
    13     7     4    1
    14     4    19    1
    15    19    20    1
    16    20    21   ar
    17    21    22   ar
    18    22    23   ar
    19    23    24   ar
    20    24    25   ar
    21     4     1    1
    22     1     2    1
    23     1    26    1
    24    27    26    1
    25    27    44    1
    26    44    45    1
    27    45    46   ar
    28    46    47   ar
    29    47    48   ar
    30    48    49   ar
    31    49    50   ar
    32    27    28    1
    33    28    29   am
    34    29    30    2
    35    29    32    1
    36    32    41    1
    37    41    42    1
    38    41    43    1
    39    32    33    1
    40    33    34    1
    41    34    35    1
    42    35    36    1
    43    36    37    1
    44    37    38   am
    45    38    39    2
    46    18    12   ar
    47    25    20   ar
    48    50    45   ar
    49    38    33   am
    50     7     8    1
    51     2     3    1
    52    28    31    1
    53    37    40    1
@<TRIPOS>MOLECULE
*****
 50 53 0 0 0
SMALL
GASTEIGER

@<TRIPOS>ATOM
      1 C         143.3470  139.2125  163.3736 C.3     1  UNL1        0.1303
      2 O         144.7926  138.9879  163.0421 O.3     1  UNL1       -0.3827
      3 H         144.9445  138.0434  162.8816 H       1  UNL1        0.2104
      4 C         142.8510  140.5976  163.6658 C.3     1  UNL1        0.1028
      5 C         142.6312  142.2893  161.7062 C.2     1  UNL1        0.2671
      6 O         144.1092  142.5402  161.7571 O.2     1  UNL1       -0.2711
      7 N         142.0021  141.3180  162.6606 N.am    1  UNL1       -0.3002
      8 H         141.0320  141.1532  162.6272 H       1  UNL1        0.1496
      9 C         141.7823  143.0096  160.7010 C.3     1  UNL1        0.2893
     10 O         141.0121  144.2309  161.1074 O.3     1  UNL1       -0.4663
     11 C         141.7078  145.4647  163.7520 C.3     1  UNL1        0.0342
     12 C         140.3876  144.7763  163.5697 C.ar    1  UNL1        0.0118
     13 C         139.4153  144.7049  164.7096 C.ar    1  UNL1       -0.0013
     14 C         138.0951  144.0165  164.5273 C.ar    1  UNL1       -0.0004
     15 C         137.7472  143.3996  163.2050 C.ar    1  UNL1       -0.0013
     16 C         138.7195  143.4711  162.0651 C.ar    1  UNL1        0.0118
     17 C         138.3717  142.8542  160.7428 C.3     1  UNL1        0.0342
     18 C         140.0397  144.1595  162.2475 C.ar    1  UNL1        0.1312
     19 C         143.2040  141.2624  164.9633 C.3     1  UNL1        0.0484
     20 C         142.2315  141.2424  166.1052 C.ar    1  UNL1       -0.0204
     21 C         142.0677  139.9997  166.9291 C.ar    1  UNL1       -0.0042
     22 C         141.0952  139.9797  168.0709 C.ar    1  UNL1       -0.0003
     23 C         140.2865  141.2025  168.3889 C.ar    1  UNL1       -0.0000
     24 C         140.4503  142.4451  167.5649 C.ar    1  UNL1       -0.0003
     25 C         141.4229  142.4651  166.4230 C.ar    1  UNL1       -0.0042
     26 C         142.3974  138.0521  163.4128 C.3     1  UNL1        0.0508
     27 C         141.4021  137.8598  162.3071 C.3     1  UNL1        0.0784
     28 N         141.8422  137.9571  160.8765 N.am    1  UNL1       -0.3042
     29 C         141.3411  139.0759  160.0121 C.2     1  UNL1        0.2406
     30 O         140.8513  139.6929  160.1337 O.2     1  UNL1       -0.2733
     31 H         142.4599  137.2866  160.5048 H       1  UNL1        0.1494
     32 C         141.7813  139.1732  158.5814 C.3     1  UNL1        0.1529
     33 N         141.6056  138.0016  157.6614 N.am    1  UNL1       -0.2574
     34 C         142.7638  137.0922  157.3756 C.3     1  UNL1        0.0971
     35 C         142.5881  135.9205  156.4555 C.3     1  UNL1        0.0428
     36 C         141.2543  135.6584  155.8212 C.3     1  UNL1        0.0927
     37 N         140.0962  136.5679  156.1069 N.am    1  UNL1       -0.2887
     38 C         140.2718  137.7395  157.0270 C.2     1  UNL1        0.3043
     39 O         139.1137  138.6489  157.3127 O.2     1  UNL1       -0.2526
     40 H         139.2208  136.3959  155.6906 H       1  UNL1        0.1510
     41 C         142.3970  140.4421  158.0708 C.3     1  UNL1        0.0272
     42 C         143.8171  140.7789  158.4169 C.3     1  UNL1        0.0022
     43 C         141.5926  141.3742  157.2139 C.3     1  UNL1        0.0022
     44 C         139.9667  137.5702  162.6322 C.3     1  UNL1        0.0460
     45 C         139.3194  138.2238  163.8170 C.ar    1  UNL1       -0.0205
     46 C         138.9325  137.4002  165.0095 C.ar    1  UNL1       -0.0042
     47 C         138.2853  138.0539  166.1943 C.ar    1  UNL1       -0.0003
     48 C         138.0249  139.5311  166.1867 C.ar    1  UNL1       -0.0000
     49 C         138.4118  140.3547  164.9942 C.ar    1  UNL1       -0.0003
     50 C         139.0591  139.7010  163.8093 C.ar    1  UNL1       -0.0042
@<TRIPOS>BOND
     1    11    12    1
     2    12    13   ar
     3    13    14   ar
     4    14    15   ar
     5    15    16   ar
     6    16    17    1
     7    16    18   ar
     8    18    10    1
     9    10     9    1
    10     9     5    1
    11     5     6    2
    12     5     7   am
    13     7     4    1
    14     4    19    1
    15    19    20    1
    16    20    21   ar
    17    21    22   ar
    18    22    23   ar
    19    23    24   ar
    20    24    25   ar
    21     4     1    1
    22     1     2    1
    23     1    26    1
    24    27    26    1
    25    27    44    1
    26    44    45    1
    27    45    46   ar
    28    46    47   ar
    29    47    48   ar
    30    48    49   ar
    31    49    50   ar
    32    27    28    1
    33    28    29   am
    34    29    30    2
    35    29    32    1
    36    32    41    1
    37    41    42    1
    38    41    43    1
    39    32    33    1
    40    33    34    1
    41    34    35    1
    42    35    36    1
    43    36    37    1
    44    37    38   am
    45    38    39    2
    46    18    12   ar
    47    25    20   ar
    48    50    45   ar
    49    38    33   am
    50     7     8    1
    51     2     3    1
    52    28    31    1
    53    37    40    1
@<TRIPOS>MOLECULE
*****
 50 53 0 0 0
SMALL
GASTEIGER

@<TRIPOS>ATOM
      1 C         137.6973  141.9991  162.5665 C.3     1  UNL1        0.1303
      2 O         136.5303  141.2998  163.1982 O.3     1  UNL1       -0.3827
      3 H         136.0399  141.9261  163.7533 H       1  UNL1        0.2104
      4 C         138.6200  141.2450  161.6556 C.3     1  UNL1        0.1028
      5 C         138.8637  138.7311  162.2649 C.2     1  UNL1        0.2671
      6 O         137.4594  138.4824  161.7998 O.2     1  UNL1       -0.2711
      7 N         139.4440  140.1125  162.1928 N.am    1  UNL1       -0.3002
      8 H         140.3656  140.2758  162.4980 H       1  UNL1        0.1496
      9 C         139.6876  137.5986  162.8020 C.3     1  UNL1        0.2893
     10 O         140.9933  137.2472  162.1527 O.3     1  UNL1       -0.4663
     11 C         141.8977  137.8986  164.9381 C.3     1  UNL1        0.0342
     12 C         142.6478  138.4440  163.7592 C.ar    1  UNL1        0.0118
     13 C         143.8501  139.3150  163.9729 C.ar    1  UNL1       -0.0013
     14 C         144.6002  139.8604  162.7940 C.ar    1  UNL1       -0.0004
     15 C         144.1481  139.5348  161.4014 C.ar    1  UNL1       -0.0013
     16 C         142.9458  138.6637  161.1876 C.ar    1  UNL1        0.0118
     17 C         142.4936  138.3380  159.7949 C.3     1  UNL1        0.0342
     18 C         142.1957  138.1183  162.3665 C.ar    1  UNL1        0.1312
     19 C         138.7189  141.6234  160.2075 C.3     1  UNL1        0.0484
     20 C         139.9084  142.3915  159.7125 C.ar    1  UNL1       -0.0204
     21 C         139.8582  143.8890  159.6427 C.ar    1  UNL1       -0.0042
     22 C         141.0478  144.6570  159.1477 C.ar    1  UNL1       -0.0003
     23 C         142.2876  143.9276  158.7225 C.ar    1  UNL1       -0.0000
     24 C         142.3378  142.4300  158.7923 C.ar    1  UNL1       -0.0003
     25 C         141.1482  141.6620  159.2873 C.ar    1  UNL1       -0.0042
     26 C         137.9415  143.4525  162.8456 C.3     1  UNL1        0.0508
     27 C         138.9637  143.8589  163.8655 C.3     1  UNL1        0.0784
     28 N         138.9975  143.1829  165.2041 N.am    1  UNL1       -0.3042
     29 C         139.9256  142.0279  165.4378 C.2     1  UNL1        0.2406
     30 O         140.4581  141.6450  164.9847 O.2     1  UNL1       -0.2733
     31 H         138.4106  143.4974  165.9293 H       1  UNL1        0.1494
     32 C         139.9594  141.3519  166.7764 C.3     1  UNL1        0.1529
     33 N         140.8330  141.8941  167.8685 N.am    1  UNL1       -0.2574
     34 C         140.3200  142.9761  168.7719 C.3     1  UNL1        0.0971
     35 C         141.1937  143.5183  169.8640 C.3     1  UNL1        0.0428
     36 C         142.5804  142.9784  170.0528 C.3     1  UNL1        0.0927
     37 N         143.0934  141.8964  169.1494 N.am    1  UNL1       -0.2887
     38 C         142.2198  141.3543  168.0573 C.2     1  UNL1        0.3043
     39 O         142.7328  140.2723  167.1539 O.2     1  UNL1       -0.2526
     40 H         144.0036  141.5421  169.2733 H       1  UNL1        0.1510
     41 C         139.1196  140.1338  167.0229 C.3     1  UNL1        0.0272
     42 C         138.9525  139.6077  168.4176 C.3     1  UNL1        0.0022
     43 C         138.4469  139.4416  165.8746 C.3     1  UNL1        0.0022
     44 C         139.9520  144.9413  163.5466 C.3     1  UNL1        0.0460
     45 C         141.3867  144.5926  163.2820 C.ar    1  UNL1       -0.0205
     46 C         142.4804  145.4961  163.7697 C.ar    1  UNL1       -0.0042
     47 C         143.9150  145.1474  163.5050 C.ar    1  UNL1       -0.0003
     48 C         144.2561  143.8953  162.7528 C.ar    1  UNL1       -0.0000
     49 C         143.1626  142.9919  162.2651 C.ar    1  UNL1       -0.0003
     50 C         141.7278  143.3405  162.5298 C.ar    1  UNL1       -0.0042
@<TRIPOS>BOND
     1    11    12    1
     2    12    13   ar
     3    13    14   ar
     4    14    15   ar
     5    15    16   ar
     6    16    17    1
     7    16    18   ar
     8    18    10    1
     9    10     9    1
    10     9     5    1
    11     5     6    2
    12     5     7   am
    13     7     4    1
    14     4    19    1
    15    19    20    1
    16    20    21   ar
    17    21    22   ar
    18    22    23   ar
    19    23    24   ar
    20    24    25   ar
    21     4     1    1
    22     1     2    1
    23     1    26    1
    24    27    26    1
    25    27    44    1
    26    44    45    1
    27    45    46   ar
    28    46    47   ar
    29    47    48   ar
    30    48    49   ar
    31    49    50   ar
    32    27    28    1
    33    28    29   am
    34    29    30    2
    35    29    32    1
    36    32    41    1
    37    41    42    1
    38    41    43    1
    39    32    33    1
    40    33    34    1
    41    34    35    1
    42    35    36    1
    43    36    37    1
    44    37    38   am
    45    38    39    2
    46    18    12   ar
    47    25    20   ar
    48    50    45   ar
    49    38    33   am
    50     7     8    1
    51     2     3    1
    52    28    31    1
    53    37    40    1
@<TRIPOS>MOLECULE
*****
 50 53 0 0 0
SMALL
GASTEIGER

@<TRIPOS>ATOM
      1 C         143.8550  143.3192  162.9992 C.3     1  UNL1        0.1303
      2 O         144.8698  143.0615  161.9251 O.3     1  UNL1       -0.3827
      3 H         144.9755  143.8584  161.3822 H       1  UNL1        0.2104
      4 C         143.5082  142.2373  163.9786 C.3     1  UNL1        0.1028
      5 C         143.4683  139.7206  163.3343 C.2     1  UNL1        0.2671
      6 O         144.9407  139.6279  163.6057 O.2     1  UNL1       -0.2711
      7 N         142.7521  141.0253  163.5207 N.am    1  UNL1       -0.3002
      8 H         141.7858  141.0862  163.3425 H       1  UNL1        0.1496
      9 C         142.7123  138.5087  162.8764 C.3     1  UNL1        0.2893
     10 O         141.9925  137.6521  163.8754 O.3     1  UNL1       -0.4663
     11 C         139.1110  137.6704  163.0407 C.3     1  UNL1        0.0342
     12 C         139.5145  138.2672  164.3564 C.ar    1  UNL1        0.0118
     13 C         138.4773  138.8731  165.2547 C.ar    1  UNL1       -0.0013
     14 C         138.8808  139.4700  166.5703 C.ar    1  UNL1       -0.0004
     15 C         140.3215  139.4608  166.9877 C.ar    1  UNL1       -0.0013
     16 C         141.3587  138.8549  166.0894 C.ar    1  UNL1        0.0118
     17 C         142.7995  138.8457  166.5067 C.3     1  UNL1        0.0342
     18 C         140.9552  138.2581  164.7737 C.ar    1  UNL1        0.1312
     19 C         143.9175  142.3672  165.4158 C.3     1  UNL1        0.0484
     20 C         142.8728  142.4914  166.4849 C.ar    1  UNL1       -0.0204
     21 C         143.2435  142.2842  167.9235 C.ar    1  UNL1       -0.0042
     22 C         142.1987  142.4084  168.9926 C.ar    1  UNL1       -0.0003
     23 C         140.7831  142.7398  168.6230 C.ar    1  UNL1       -0.0000
     24 C         140.4125  142.9470  167.1844 C.ar    1  UNL1       -0.0003
     25 C         141.4573  142.8228  166.1153 C.ar    1  UNL1       -0.0042
     26 C         143.1870  144.6588  163.0940 C.3     1  UNL1        0.0508
     27 C         142.0443  144.9934  162.1816 C.3     1  UNL1        0.0784
     28 N         142.2118  144.8755  160.6956 N.am    1  UNL1       -0.3042
     29 C         141.8109  143.6121  159.9935 C.2     1  UNL1        0.2406
     30 O         141.5005  142.9188  160.2353 O.2     1  UNL1       -0.2733
     31 H         142.5849  145.6275  160.1812 H       1  UNL1        0.1494
     32 C         141.9785  143.4943  158.5076 C.3     1  UNL1        0.1529
     33 N         141.1183  144.3103  157.5888 N.am    1  UNL1       -0.2574
     34 C         139.9218  143.6882  156.9320 C.3     1  UNL1        0.0971
     35 C         139.0617  144.5043  156.0132 C.3     1  UNL1        0.0428
     36 C         139.3980  145.9424  155.7512 C.3     1  UNL1        0.0927
     37 N         140.5945  146.5645  156.4081 N.am    1  UNL1       -0.2887
     38 C         141.4546  145.7485  157.3268 C.2     1  UNL1        0.3043
     39 O         142.6511  146.3706  157.9837 O.2     1  UNL1       -0.2526
     40 H         140.8152  147.5084  156.2361 H       1  UNL1        0.1510
     41 C         143.0061  142.5604  157.9404 C.3     1  UNL1        0.0272
     42 C         144.4535  142.7336  158.2942 C.3     1  UNL1        0.0022
     43 C         142.5865  141.4533  157.0194 C.3     1  UNL1        0.0022
     44 C         140.7342  145.4457  162.7551 C.3     1  UNL1        0.0460
     45 C         139.7795  144.4408  163.3283 C.ar    1  UNL1       -0.0205
     46 C         138.7504  144.8710  164.3313 C.ar    1  UNL1       -0.0042
     47 C         137.7957  143.8661  164.9045 C.ar    1  UNL1       -0.0003
     48 C         137.8701  142.4309  164.4748 C.ar    1  UNL1       -0.0000
     49 C         138.8991  142.0006  163.4719 C.ar    1  UNL1       -0.0003
     50 C         139.8539  143.0056  162.8986 C.ar    1  UNL1       -0.0042
@<TRIPOS>BOND
     1    11    12    1
     2    12    13   ar
     3    13    14   ar
     4    14    15   ar
     5    15    16   ar
     6    16    17    1
     7    16    18   ar
     8    18    10    1
     9    10     9    1
    10     9     5    1
    11     5     6    2
    12     5     7   am
    13     7     4    1
    14     4    19    1
    15    19    20    1
    16    20    21   ar
    17    21    22   ar
    18    22    23   ar
    19    23    24   ar
    20    24    25   ar
    21     4     1    1
    22     1     2    1
    23     1    26    1
    24    27    26    1
    25    27    44    1
    26    44    45    1
    27    45    46   ar
    28    46    47   ar
    29    47    48   ar
    30    48    49   ar
    31    49    50   ar
    32    27    28    1
    33    28    29   am
    34    29    30    2
    35    29    32    1
    36    32    41    1
    37    41    42    1
    38    41    43    1
    39    32    33    1
    40    33    34    1
    41    34    35    1
    42    35    36    1
    43    36    37    1
    44    37    38   am
    45    38    39    2
    46    18    12   ar
    47    25    20   ar
    48    50    45   ar
    49    38    33   am
    50     7     8    1
    51     2     3    1
    52    28    31    1
    53    37    40    1
@<TRIPOS>MOLECULE
*****
 50 53 0 0 0
SMALL
GASTEIGER

@<TRIPOS>ATOM
      1 C         144.2970  142.3133  162.8826 C.3     1  UNL1        0.1303
      2 O         145.5606  142.1099  162.1004 O.3     1  UNL1       -0.3827
      3 H         145.9361  142.9721  161.8627 H       1  UNL1        0.2104
      4 C         143.5187  141.1280  163.3718 C.3     1  UNL1        0.1028
      5 C         142.2698  139.5766  161.7034 C.2     1  UNL1        0.2671
      6 O         143.5481  138.8404  161.4311 O.2     1  UNL1       -0.2711
      7 N         142.2551  140.7204  162.6738 N.am    1  UNL1       -0.3002
      8 H         141.4162  141.2035  162.8525 H       1  UNL1        0.1496
      9 C         141.0062  139.1690  161.0054 C.3     1  UNL1        0.2893
     10 O         139.9556  138.3965  161.7467 O.3     1  UNL1       -0.4663
     11 C         141.1657  137.1785  164.2067 C.3     1  UNL1        0.0342
     12 C         140.1149  138.2411  164.3352 C.ar    1  UNL1        0.0118
     13 C         139.6691  138.6947  165.6937 C.ar    1  UNL1       -0.0013
     14 C         138.6182  139.7574  165.8221 C.ar    1  UNL1       -0.0004
     15 C         138.0131  140.3664  164.5921 C.ar    1  UNL1       -0.0013
     16 C         138.4589  139.9128  163.2337 C.ar    1  UNL1        0.0118
     17 C         137.8538  140.5218  162.0036 C.3     1  UNL1        0.0342
     18 C         139.5098  138.8501  163.1052 C.ar    1  UNL1        0.1312
     19 C         144.0041  140.3502  164.5590 C.3     1  UNL1        0.0484
     20 C         143.2300  140.3814  165.8435 C.ar    1  UNL1       -0.0204
     21 C         142.4373  141.6003  166.2120 C.ar    1  UNL1       -0.0042
     22 C         141.6633  141.6315  167.4965 C.ar    1  UNL1       -0.0003
     23 C         141.6820  140.4438  168.4125 C.ar    1  UNL1       -0.0000
     24 C         142.4747  139.2249  168.0439 C.ar    1  UNL1       -0.0003
     25 C         143.2488  139.1937  166.7594 C.ar    1  UNL1       -0.0042
     26 C         143.8115  143.7019  163.1756 C.3     1  UNL1        0.0508
     27 C         142.7963  144.3464  162.2788 C.3     1  UNL1        0.0784
     28 N         142.7668  144.0114  160.8170 N.am    1  UNL1       -0.3042
     29 C         141.6866  143.1245  160.2724 C.2     1  UNL1        0.2406
     30 O         141.0624  142.7492  160.5965 O.2     1  UNL1       -0.2733
     31 H         143.4564  144.3737  160.2149 H       1  UNL1        0.1494
     32 C         141.6571  142.7895  158.8106 C.3     1  UNL1        0.1529
     33 N         142.0760  141.4266  158.3449 N.am    1  UNL1       -0.2574
     34 C         141.1097  140.5618  157.5910 C.3     1  UNL1        0.0971
     35 C         141.5287  139.1988  157.1252 C.3     1  UNL1        0.0428
     36 C         142.9139  138.7007  157.4134 C.3     1  UNL1        0.0927
     37 N         143.8802  139.5655  158.1673 N.am    1  UNL1       -0.2887
     38 C         143.4613  140.9285  158.6330 C.2     1  UNL1        0.3043
     39 O         144.4276  141.7933  159.3869 O.2     1  UNL1       -0.2526
     40 H         144.7893  139.2386  158.3564 H       1  UNL1        0.1510
     41 C         141.2087  143.8175  157.8145 C.3     1  UNL1        0.0272
     42 C         139.7456  144.0221  157.5549 C.3     1  UNL1        0.0022
     43 C         142.2235  144.6408  157.0779 C.3     1  UNL1        0.0022
     44 C         141.8107  145.3258  162.8438 C.3     1  UNL1        0.0460
     45 C         140.5030  144.8402  163.3952 C.ar    1  UNL1       -0.0205
     46 C         140.4452  144.2372  164.7675 C.ar    1  UNL1       -0.0042
     47 C         139.1375  143.7516  165.3189 C.ar    1  UNL1       -0.0003
     48 C         137.8875  143.8690  164.4980 C.ar    1  UNL1       -0.0000
     49 C         137.9453  144.4720  163.1258 C.ar    1  UNL1       -0.0003
     50 C         139.2530  144.9576  162.5744 C.ar    1  UNL1       -0.0042
@<TRIPOS>BOND
     1    11    12    1
     2    12    13   ar
     3    13    14   ar
     4    14    15   ar
     5    15    16   ar
     6    16    17    1
     7    16    18   ar
     8    18    10    1
     9    10     9    1
    10     9     5    1
    11     5     6    2
    12     5     7   am
    13     7     4    1
    14     4    19    1
    15    19    20    1
    16    20    21   ar
    17    21    22   ar
    18    22    23   ar
    19    23    24   ar
    20    24    25   ar
    21     4     1    1
    22     1     2    1
    23     1    26    1
    24    27    26    1
    25    27    44    1
    26    44    45    1
    27    45    46   ar
    28    46    47   ar
    29    47    48   ar
    30    48    49   ar
    31    49    50   ar
    32    27    28    1
    33    28    29   am
    34    29    30    2
    35    29    32    1
    36    32    41    1
    37    41    42    1
    38    41    43    1
    39    32    33    1
    40    33    34    1
    41    34    35    1
    42    35    36    1
    43    36    37    1
    44    37    38   am
    45    38    39    2
    46    18    12   ar
    47    25    20   ar
    48    50    45   ar
    49    38    33   am
    50     7     8    1
    51     2     3    1
    52    28    31    1
    53    37    40    1
@<TRIPOS>MOLECULE
*****
 50 53 0 0 0
SMALL
GASTEIGER

@<TRIPOS>ATOM
      1 C         143.4101  139.5103  163.5608 C.3     1  UNL1        0.1303
      2 O         144.8501  139.3935  163.1573 O.3     1  UNL1       -0.3827
      3 H         145.0768  138.4583  163.0354 H       1  UNL1        0.2104
      4 C         142.8089  140.8614  163.8122 C.3     1  UNL1        0.1028
      5 C         142.5516  142.3671  161.7106 C.2     1  UNL1        0.2671
      6 O         144.0342  142.5942  161.6918 O.2     1  UNL1       -0.2711
      7 N         141.9389  141.5007  162.7708 N.am    1  UNL1       -0.3002
      8 H         140.9658  141.3517  162.7831 H       1  UNL1        0.1496
      9 C         141.6817  143.0064  160.6692 C.3     1  UNL1        0.2893
     10 O         140.8127  144.1741  161.0317 O.3     1  UNL1       -0.4663
     11 C         138.2086  142.6925  160.8776 C.3     1  UNL1        0.0342
     12 C         138.6178  143.3589  162.1577 C.ar    1  UNL1        0.0118
     13 C         137.7250  143.2844  163.3607 C.ar    1  UNL1       -0.0013
     14 C         138.1341  143.9508  164.6407 C.ar    1  UNL1       -0.0004
     15 C         139.4361  144.6916  164.7178 C.ar    1  UNL1       -0.0013
     16 C         140.3289  144.7660  163.5148 C.ar    1  UNL1        0.0118
     17 C         141.6310  145.5068  163.5918 C.3     1  UNL1        0.0342
     18 C         139.9198  144.0997  162.2347 C.ar    1  UNL1        0.1312
     19 C         143.0776  141.5732  165.1049 C.3     1  UNL1        0.0484
     20 C         142.1553  141.3818  166.2722 C.ar    1  UNL1       -0.0204
     21 C         142.1160  140.0648  166.9890 C.ar    1  UNL1       -0.0042
     22 C         141.1937  139.8734  168.1564 C.ar    1  UNL1       -0.0003
     23 C         140.3107  140.9992  168.6069 C.ar    1  UNL1       -0.0000
     24 C         140.3500  142.3163  167.8901 C.ar    1  UNL1       -0.0003
     25 C         141.2724  142.5076  166.7228 C.ar    1  UNL1       -0.0042
     26 C         142.5713  138.2762  163.7129 C.3     1  UNL1        0.0508
     27 C         141.5940  137.8966  162.6401 C.3     1  UNL1        0.0784
     28 N         141.9881  137.9984  161.1964 N.am    1  UNL1       -0.3042
     29 C         141.3348  139.0175  160.3107 C.2     1  UNL1        0.2406
     30 O         140.7754  139.5738  160.4255 O.2     1  UNL1       -0.2733
     31 H         142.6755  137.3963  160.8302 H       1  UNL1        0.1494
     32 C         141.7289  139.1193  158.8670 C.3     1  UNL1        0.1529
     33 N         142.5574  140.2774  158.3956 N.am    1  UNL1       -0.2574
     34 C         142.0185  141.2092  157.3510 C.3     1  UNL1        0.0971
     35 C         142.8472  142.3674  156.8796 C.3     1  UNL1        0.0428
     36 C         144.2147  142.5936  157.4528 C.3     1  UNL1        0.0927
     37 N         144.7536  141.6618  158.4975 N.am    1  UNL1       -0.2887
     38 C         143.9250  140.5037  158.9689 C.2     1  UNL1        0.3043
     39 O         144.4640  139.5719  160.0135 O.2     1  UNL1       -0.2526
     40 H         145.6512  141.8103  158.8737 H       1  UNL1        0.1510
     41 C         141.2944  138.0631  157.8947 C.3     1  UNL1        0.0272
     42 C         142.2872  137.0634  157.3800 C.3     1  UNL1        0.0022
     43 C         139.8670  138.0065  157.4370 C.3     1  UNL1        0.0022
     44 C         140.2226  137.4152  163.0111 C.3     1  UNL1        0.0460
     45 C         139.4687  138.0829  164.1227 C.ar    1  UNL1       -0.0205
     46 C         139.3292  139.5763  164.1432 C.ar    1  UNL1       -0.0042
     47 C         138.5753  140.2440  165.2549 C.ar    1  UNL1       -0.0003
     48 C         137.9607  139.4183  166.3460 C.ar    1  UNL1       -0.0000
     49 C         138.1001  137.9250  166.3255 C.ar    1  UNL1       -0.0003
     50 C         138.8541  137.2572  165.2138 C.ar    1  UNL1       -0.0042
@<TRIPOS>BOND
     1    11    12    1
     2    12    13   ar
     3    13    14   ar
     4    14    15   ar
     5    15    16   ar
     6    16    17    1
     7    16    18   ar
     8    18    10    1
     9    10     9    1
    10     9     5    1
    11     5     6    2
    12     5     7   am
    13     7     4    1
    14     4    19    1
    15    19    20    1
    16    20    21   ar
    17    21    22   ar
    18    22    23   ar
    19    23    24   ar
    20    24    25   ar
    21     4     1    1
    22     1     2    1
    23     1    26    1
    24    27    26    1
    25    27    44    1
    26    44    45    1
    27    45    46   ar
    28    46    47   ar
    29    47    48   ar
    30    48    49   ar
    31    49    50   ar
    32    27    28    1
    33    28    29   am
    34    29    30    2
    35    29    32    1
    36    32    41    1
    37    41    42    1
    38    41    43    1
    39    32    33    1
    40    33    34    1
    41    34    35    1
    42    35    36    1
    43    36    37    1
    44    37    38   am
    45    38    39    2
    46    18    12   ar
    47    25    20   ar
    48    50    45   ar
    49    38    33   am
    50     7     8    1
    51     2     3    1
    52    28    31    1
    53    37    40    1
@<TRIPOS>MOLECULE
*****
 50 53 0 0 0
SMALL
GASTEIGER

@<TRIPOS>ATOM
      1 C         144.5964  142.3600  163.4342 C.3     1  UNL1        0.1303
      2 O         145.8343  141.9909  162.6718 O.3     1  UNL1       -0.3827
      3 H         146.3517  142.7907  162.4885 H       1  UNL1        0.2104
      4 C         143.6216  141.2955  163.8424 C.3     1  UNL1        0.1028
      5 C         142.7614  139.6677  162.0092 C.2     1  UNL1        0.2671
      6 O         144.0544  138.9102  162.0752 O.2     1  UNL1       -0.2711
      7 N         142.5450  140.8604  162.8928 N.am    1  UNL1       -0.3002
      8 H         141.6964  141.3576  162.8495 H       1  UNL1        0.1496
      9 C         141.6848  139.2326  161.0597 C.3     1  UNL1        0.2893
     10 O         140.6210  138.2795  161.5177 O.3     1  UNL1       -0.4663
     11 C         138.4982  140.3945  161.3752 C.3     1  UNL1        0.0342
     12 C         138.7374  139.6573  162.6594 C.ar    1  UNL1        0.0118
     13 C         137.9152  139.9776  163.8724 C.ar    1  UNL1       -0.0013
     14 C         138.1544  139.2404  165.1567 C.ar    1  UNL1       -0.0004
     15 C         139.2158  138.1829  165.2280 C.ar    1  UNL1       -0.0013
     16 C         140.0379  137.8626  164.0150 C.ar    1  UNL1        0.0118
     17 C         141.0994  136.8051  164.0863 C.3     1  UNL1        0.0342
     18 C         139.7987  138.5998  162.7307 C.ar    1  UNL1        0.1312
     19 C         143.7234  140.6660  165.2001 C.3     1  UNL1        0.0484
     20 C         142.7897  141.0893  166.2950 C.ar    1  UNL1       -0.0204
     21 C         141.4684  140.3993  166.4624 C.ar    1  UNL1       -0.0042
     22 C         140.5346  140.8226  167.5573 C.ar    1  UNL1       -0.0003
     23 C         140.9221  141.9360  168.4848 C.ar    1  UNL1       -0.0000
     24 C         142.2434  142.6261  168.3174 C.ar    1  UNL1       -0.0003
     25 C         143.1772  142.2027  167.2224 C.ar    1  UNL1       -0.0042
     26 C         144.3332  143.7935  163.7885 C.3     1  UNL1        0.0508
     27 C         143.2143  144.5377  163.1217 C.3     1  UNL1        0.0784
     28 N         143.1431  144.6010  161.6247 N.am    1  UNL1       -0.3042
     29 C         142.3255  143.5955  160.8695 C.2     1  UNL1        0.2406
     30 O         141.8746  142.9744  161.0848 O.2     1  UNL1       -0.2733
     31 H         143.6330  145.3026  161.1379 H       1  UNL1        0.1494
     32 C         142.2542  143.6589  159.3726 C.3     1  UNL1        0.1529
     33 N         142.9246  142.6030  158.5444 N.am    1  UNL1       -0.2574
     34 C         144.3923  142.6999  158.2505 C.3     1  UNL1        0.0971
     35 C         145.0626  141.6439  157.4223 C.3     1  UNL1        0.0428
     36 C         144.2652  140.4912  156.8882 C.3     1  UNL1        0.0927
     37 N         142.7974  140.3944  157.1821 N.am    1  UNL1       -0.2887
     38 C         142.1271  141.4502  158.0102 C.2     1  UNL1        0.3043
     39 O         140.6594  141.3534  158.3042 O.2     1  UNL1       -0.2526
     40 H         142.2741  139.6378  156.8315 H       1  UNL1        0.1510
     41 C         141.5127  144.7781  158.7037 C.3     1  UNL1        0.0272
     42 C         140.0724  145.0292  159.0388 C.3     1  UNL1        0.0022
     43 C         142.2115  145.6463  157.6997 C.3     1  UNL1        0.0022
     44 C         142.1668  145.2183  163.9518 C.3     1  UNL1        0.0460
     45 C         140.7691  144.6751  163.9886 C.ar    1  UNL1       -0.0205
     46 C         140.3860  143.6600  165.0245 C.ar    1  UNL1       -0.0042
     47 C         138.9883  143.1168  165.0613 C.ar    1  UNL1       -0.0003
     48 C         137.9737  143.5886  164.0623 C.ar    1  UNL1       -0.0000
     49 C         138.3568  144.6036  163.0265 C.ar    1  UNL1       -0.0003
     50 C         139.7545  145.1469  162.9896 C.ar    1  UNL1       -0.0042
@<TRIPOS>BOND
     1    11    12    1
     2    12    13   ar
     3    13    14   ar
     4    14    15   ar
     5    15    16   ar
     6    16    17    1
     7    16    18   ar
     8    18    10    1
     9    10     9    1
    10     9     5    1
    11     5     6    2
    12     5     7   am
    13     7     4    1
    14     4    19    1
    15    19    20    1
    16    20    21   ar
    17    21    22   ar
    18    22    23   ar
    19    23    24   ar
    20    24    25   ar
    21     4     1    1
    22     1     2    1
    23     1    26    1
    24    27    26    1
    25    27    44    1
    26    44    45    1
    27    45    46   ar
    28    46    47   ar
    29    47    48   ar
    30    48    49   ar
    31    49    50   ar
    32    27    28    1
    33    28    29   am
    34    29    30    2
    35    29    32    1
    36    32    41    1
    37    41    42    1
    38    41    43    1
    39    32    33    1
    40    33    34    1
    41    34    35    1
    42    35    36    1
    43    36    37    1
    44    37    38   am
    45    38    39    2
    46    18    12   ar
    47    25    20   ar
    48    50    45   ar
    49    38    33   am
    50     7     8    1
    51     2     3    1
    52    28    31    1
    53    37    40    1
@<TRIPOS>MOLECULE
*****
 50 53 0 0 0
SMALL
GASTEIGER

@<TRIPOS>ATOM
      1 C         142.1701  138.2825  161.7913 C.3     1  UNL1        0.1303
      2 O         141.5893  136.9531  162.1724 O.3     1  UNL1       -0.3827
      3 H         142.2472  136.4439  162.6712 H       1  UNL1        0.2104
      4 C         141.3482  139.2635  161.0088 C.3     1  UNL1        0.1028
      5 C         138.9298  139.4302  161.9434 C.2     1  UNL1        0.2671
      6 O         138.6656  138.0182  161.5116 O.2     1  UNL1       -0.2711
      7 N         140.2711  140.0529  161.6920 N.am    1  UNL1       -0.3002
      8 H         140.4445  140.9796  161.9754 H       1  UNL1        0.1496
      9 C         137.8527  140.2196  162.6266 C.3     1  UNL1        0.2893
     10 O         137.4201  141.5412  162.0643 O.3     1  UNL1       -0.4663
     11 C         138.7026  142.6040  159.5692 C.3     1  UNL1        0.0342
     12 C         138.9799  143.2562  160.8913 C.ar    1  UNL1        0.0118
     13 C         139.8984  144.4397  160.9658 C.ar    1  UNL1       -0.0013
     14 C         140.1757  145.0918  162.2879 C.ar    1  UNL1       -0.0004
     15 C         139.5345  144.5604  163.5354 C.ar    1  UNL1       -0.0013
     16 C         138.6159  143.3769  163.4609 C.ar    1  UNL1        0.0118
     17 C         137.9746  142.8454  164.7085 C.3     1  UNL1        0.0342
     18 C         138.3387  142.7248  162.1388 C.ar    1  UNL1        0.1312
     19 C         141.6034  139.4550  159.5432 C.3     1  UNL1        0.0484
     20 C         142.5091  140.5562  159.0772 C.ar    1  UNL1       -0.0204
     21 C         142.1174  141.9889  159.2873 C.ar    1  UNL1       -0.0042
     22 C         143.0231  143.0900  158.8213 C.ar    1  UNL1       -0.0003
     23 C         144.3205  142.7585  158.1453 C.ar    1  UNL1       -0.0000
     24 C         144.7121  141.3259  157.9352 C.ar    1  UNL1       -0.0003
     25 C         143.8064  140.2247  158.4012 C.ar    1  UNL1       -0.0042
     26 C         143.5727  138.6311  162.1926 C.3     1  UNL1        0.0508
     27 C         143.8157  139.5053  163.3872 C.3     1  UNL1        0.0784
     28 N         142.9810  139.3369  164.6220 N.am    1  UNL1       -0.3042
     29 C         141.7491  140.1709  164.8140 C.2     1  UNL1        0.2406
     30 O         141.3908  140.7372  164.3822 O.2     1  UNL1       -0.2733
     31 H         143.2417  138.6791  165.3065 H       1  UNL1        0.1494
     32 C         140.9144  140.0025  166.0489 C.3     1  UNL1        0.1529
     33 N         141.2608  140.7585  167.2972 N.am    1  UNL1       -0.2574
     34 C         140.5351  142.0282  167.6309 C.3     1  UNL1        0.0971
     35 C         140.8817  142.7842  168.8793 C.3     1  UNL1        0.0428
     36 C         141.9538  142.2706  169.7939 C.3     1  UNL1        0.0927
     37 N         142.6796  141.0009  169.4602 N.am    1  UNL1       -0.2887
     38 C         142.3331  140.2449  168.2119 C.2     1  UNL1        0.3043
     39 O         143.0588  138.9753  167.8782 O.2     1  UNL1       -0.2526
     40 H         143.3833  140.6638  170.0605 H       1  UNL1        0.1510
     41 C         139.7332  139.0781  166.0354 C.3     1  UNL1        0.0272
     42 C         139.7049  137.9110  165.0937 C.3     1  UNL1        0.0022
     43 C         138.5802  139.3209  166.9638 C.3     1  UNL1        0.0022
     44 C         144.8934  140.5478  163.3468 C.3     1  UNL1        0.0460
     45 C         144.5376  141.9996  163.4720 C.ar    1  UNL1       -0.0205
     46 C         144.1431  142.7828  162.2550 C.ar    1  UNL1       -0.0042
     47 C         143.7873  144.2346  162.3802 C.ar    1  UNL1       -0.0003
     48 C         143.8259  144.9031  163.7224 C.ar    1  UNL1       -0.0000
     49 C         144.2203  144.1200  164.9394 C.ar    1  UNL1       -0.0003
     50 C         144.5762  142.6681  164.8142 C.ar    1  UNL1       -0.0042
@<TRIPOS>BOND
     1    11    12    1
     2    12    13   ar
     3    13    14   ar
     4    14    15   ar
     5    15    16   ar
     6    16    17    1
     7    16    18   ar
     8    18    10    1
     9    10     9    1
    10     9     5    1
    11     5     6    2
    12     5     7   am
    13     7     4    1
    14     4    19    1
    15    19    20    1
    16    20    21   ar
    17    21    22   ar
    18    22    23   ar
    19    23    24   ar
    20    24    25   ar
    21     4     1    1
    22     1     2    1
    23     1    26    1
    24    27    26    1
    25    27    44    1
    26    44    45    1
    27    45    46   ar
    28    46    47   ar
    29    47    48   ar
    30    48    49   ar
    31    49    50   ar
    32    27    28    1
    33    28    29   am
    34    29    30    2
    35    29    32    1
    36    32    41    1
    37    41    42    1
    38    41    43    1
    39    32    33    1
    40    33    34    1
    41    34    35    1
    42    35    36    1
    43    36    37    1
    44    37    38   am
    45    38    39    2
    46    18    12   ar
    47    25    20   ar
    48    50    45   ar
    49    38    33   am
    50     7     8    1
    51     2     3    1
    52    28    31    1
    53    37    40    1
@<TRIPOS>MOLECULE
*****
 50 53 0 0 0
SMALL
GASTEIGER

@<TRIPOS>ATOM
      1 C         145.2408  141.6184  163.2137 C.3     1  UNL1        0.1303
      2 O         146.6713  141.8377  162.8193 O.3     1  UNL1       -0.3827
      3 H         147.2528  141.3686  163.4380 H       1  UNL1        0.2104
      4 C         144.1375  142.2422  162.4114 C.3     1  UNL1        0.1028
      5 C         143.0422  144.4414  163.2563 C.2     1  UNL1        0.2671
      6 O         144.1981  145.2266  162.7108 O.2     1  UNL1       -0.2711
      7 N         143.0119  142.9492  163.1066 N.am    1  UNL1       -0.3002
      8 H         142.2533  142.4338  163.4646 H       1  UNL1        0.1496
      9 C         141.9167  145.1484  163.9514 C.3     1  UNL1        0.2893
     10 O         140.6745  145.5090  163.1918 O.3     1  UNL1       -0.4663
     11 C         140.5631  144.4580  160.3842 C.3     1  UNL1        0.0342
     12 C         139.6264  143.9191  161.4244 C.ar    1  UNL1        0.0118
     13 C         138.6341  142.8547  161.0609 C.ar    1  UNL1       -0.0013
     14 C         137.6974  142.3158  162.1012 C.ar    1  UNL1       -0.0004
     15 C         137.7531  142.8412  163.5050 C.ar    1  UNL1       -0.0013
     16 C         138.7455  143.9056  163.8685 C.ar    1  UNL1        0.0118
     17 C         138.8012  144.4312  165.2724 C.3     1  UNL1        0.0342
     18 C         139.6821  144.4446  162.8283 C.ar    1  UNL1        0.1312
     19 C         144.1598  142.1590  160.9139 C.3     1  UNL1        0.0484
     20 C         143.3460  141.1150  160.2085 C.ar    1  UNL1       -0.0204
     21 C         142.0190  141.4764  159.6097 C.ar    1  UNL1       -0.0042
     22 C         141.2051  140.4324  158.9043 C.ar    1  UNL1       -0.0003
     23 C         141.7182  139.0268  158.7978 C.ar    1  UNL1       -0.0000
     24 C         143.0451  138.6654  159.3966 C.ar    1  UNL1       -0.0003
     25 C         143.8590  139.7095  160.1020 C.ar    1  UNL1       -0.0042
     26 C         144.9135  140.7754  164.4104 C.3     1  UNL1        0.0508
     27 C         143.6411  139.9816  164.4433 C.3     1  UNL1        0.0784
     28 N         142.8006  139.9632  165.6856 N.am    1  UNL1       -0.3042
     29 C         141.7274  140.9929  165.8803 C.2     1  UNL1        0.2406
     30 O         141.4654  141.6085  165.4468 O.2     1  UNL1       -0.2733
     31 H         142.9533  139.2752  166.3731 H       1  UNL1        0.1494
     32 C         140.8869  140.9745  167.1225 C.3     1  UNL1        0.1529
     33 N         141.3853  141.6320  168.3752 N.am    1  UNL1       -0.2574
     34 C         140.8139  142.9493  168.8092 C.3     1  UNL1        0.0971
     35 C         141.3124  143.6068  170.0619 C.3     1  UNL1        0.0428
     36 C         142.3822  142.9471  170.8805 C.3     1  UNL1        0.0927
     37 N         142.9536  141.6299  170.4465 N.am    1  UNL1       -0.2887
     38 C         142.4552  140.9723  169.1939 C.2     1  UNL1        0.3043
     39 O         143.0266  139.6551  168.7599 O.2     1  UNL1       -0.2526
     40 H         143.6558  141.1969  170.9838 H       1  UNL1        0.1510
     41 C         139.5479  140.2985  167.1121 C.3     1  UNL1        0.0272
     42 C         138.8044  140.1268  165.8207 C.3     1  UNL1        0.0022
     43 C         138.9523  139.7942  168.3932 C.3     1  UNL1        0.0022
     44 C         143.2094  139.2062  163.2341 C.3     1  UNL1        0.0460
     45 C         141.7693  138.8227  163.0639 C.ar    1  UNL1       -0.0205
     46 C         140.8153  139.7681  162.3959 C.ar    1  UNL1       -0.0042
     47 C         139.3752  139.3845  162.2257 C.ar    1  UNL1       -0.0003
     48 C         138.8890  138.0557  162.7235 C.ar    1  UNL1       -0.0000
     49 C         139.8430  137.1104  163.3915 C.ar    1  UNL1       -0.0003
     50 C         141.2832  137.4939  163.5617 C.ar    1  UNL1       -0.0042
@<TRIPOS>BOND
     1    11    12    1
     2    12    13   ar
     3    13    14   ar
     4    14    15   ar
     5    15    16   ar
     6    16    17    1
     7    16    18   ar
     8    18    10    1
     9    10     9    1
    10     9     5    1
    11     5     6    2
    12     5     7   am
    13     7     4    1
    14     4    19    1
    15    19    20    1
    16    20    21   ar
    17    21    22   ar
    18    22    23   ar
    19    23    24   ar
    20    24    25   ar
    21     4     1    1
    22     1     2    1
    23     1    26    1
    24    27    26    1
    25    27    44    1
    26    44    45    1
    27    45    46   ar
    28    46    47   ar
    29    47    48   ar
    30    48    49   ar
    31    49    50   ar
    32    27    28    1
    33    28    29   am
    34    29    30    2
    35    29    32    1
    36    32    41    1
    37    41    42    1
    38    41    43    1
    39    32    33    1
    40    33    34    1
    41    34    35    1
    42    35    36    1
    43    36    37    1
    44    37    38   am
    45    38    39    2
    46    18    12   ar
    47    25    20   ar
    48    50    45   ar
    49    38    33   am
    50     7     8    1
    51     2     3    1
    52    28    31    1
    53    37    40    1
