@<TRIPOS>MOLECULE
*****
 35 38 0 0 0
SMALL
GASTEIGER

@<TRIPOS>ATOM
      1 O         138.4062  138.0653  162.3163 O.2     1  UNL1       -0.2241
      2 C         138.5245  138.9394  163.5295 C.2     1  UNL1        0.4287
      3 N         139.6758  138.7595  164.4742 N.am    1  UNL1       -0.1210
      4 S         139.7941  139.6336  165.6874 S.O2    1  UNL1        0.0814
      5 O         140.6449  140.5950  164.9117 O.2     1  UNL1       -0.1496
      6 O         138.9432  138.6722  166.4631 O.2     1  UNL1       -0.1496
      7 C         139.9124  140.5077  166.9006 C.ar    1  UNL1        0.1257
      8 C         139.4806  139.9923  168.2414 C.ar    1  UNL1        0.0211
      9 C         139.5989  140.8664  169.4546 C.ar    1  UNL1        0.0128
     10 C         140.1490  142.2560  169.3270 C.ar    1  UNL1        0.0578
     11 CL        140.2673  143.1302  170.5402 Cl      1  UNL1       -0.0822
     12 C         140.5809  142.7716  167.9862 C.ar    1  UNL1        0.0128
     13 C         140.4625  141.8974  166.7729 C.ar    1  UNL1        0.0211
     14 O         137.4917  139.9935  163.7980 O.3     1  UNL1       -0.4091
     15 C         137.7357  141.4096  163.3675 C.ar    1  UNL1        0.1503
     16 C         137.6878  142.5189  164.3760 C.ar    1  UNL1        0.0408
     17 C         137.9317  143.9349  163.9455 C.ar    1  UNL1        0.0400
     18 C         138.2236  144.2415  162.5065 C.ar    1  UNL1        0.1393
     19 C         138.2716  143.1322  161.4980 C.ar    1  UNL1        0.0400
     20 C         138.0276  141.7162  161.9285 C.ar    1  UNL1        0.0408
     21 O         138.4676  145.6576  162.0760 O.3     1  UNL1       -0.4706
     22 C         139.8704  146.1784  161.9707 C.3     1  UNL1        0.2320
     23 C         141.0280  145.2916  162.3224 C.ar    1  UNL1        0.0212
     24 C         141.7252  144.5078  161.2502 C.ar    1  UNL1       -0.0007
     25 C         142.8827  143.6211  161.6019 C.ar    1  UNL1       -0.0002
     26 C         143.3432  143.5183  163.0258 C.ar    1  UNL1       -0.0000
     27 C         142.6460  144.3021  164.0980 C.ar    1  UNL1       -0.0002
     28 C         141.4884  145.1888  163.7463 C.ar    1  UNL1       -0.0007
     29 C         140.7086  137.7054  164.2057 C.3     1  UNL1        0.1485
     30 C         141.8352  137.9842  163.2554 C.ar    1  UNL1       -0.0004
     31 C         143.0799  138.6625  163.7462 C.ar    1  UNL1       -0.0026
     32 C         144.2065  138.9413  162.7960 C.ar    1  UNL1       -0.0003
     33 C         144.0885  138.5418  161.3550 C.ar    1  UNL1       -0.0000
     34 C         142.8440  137.8636  160.8642 C.ar    1  UNL1       -0.0003
     35 C         141.7173  137.5847  161.8144 C.ar    1  UNL1       -0.0026
@<TRIPOS>BOND
     1     1     2    2
     2     2    14    1
     3    14    15    1
     4    15    16   ar
     5    16    17   ar
     6    17    18   ar
     7    18    21    1
     8    21    22    1
     9    22    23    1
    10    23    24   ar
    11    24    25   ar
    12    25    26   ar
    13    26    27   ar
    14    27    28   ar
    15    18    19   ar
    16    19    20   ar
    17     2     3   am
    18     3    29    1
    19    29    30    1
    20    30    31   ar
    21    31    32   ar
    22    32    33   ar
    23    33    34   ar
    24    34    35   ar
    25     3     4    1
    26     4     5    2
    27     4     6    2
    28     4     7    1
    29     7     8   ar
    30     8     9   ar
    31     9    10   ar
    32    10    11    1
    33    10    12   ar
    34    12    13   ar
    35    20    15   ar
    36    35    30   ar
    37    13     7   ar
    38    28    23   ar
@<TRIPOS>MOLECULE
*****
 35 38 0 0 0
SMALL
GASTEIGER

@<TRIPOS>ATOM
      1 O         144.1006  137.5899  167.0386 O.2     1  UNL1       -0.2241
      2 C         143.5726  138.7362  166.2280 C.2     1  UNL1        0.4287
      3 N         142.8302  139.8520  166.9017 N.am    1  UNL1       -0.1210
      4 S         142.3021  140.9983  166.0910 S.O2    1  UNL1        0.0814
      5 O         143.6513  141.6522  166.1367 O.2     1  UNL1       -0.1496
      6 O         140.9529  140.3444  166.0454 O.2     1  UNL1       -0.1496
      7 C         141.7740  142.1446  165.2803 C.ar    1  UNL1        0.1257
      8 C         140.6075  142.9432  165.7817 C.ar    1  UNL1        0.0211
      9 C         140.0794  144.0895  164.9711 C.ar    1  UNL1        0.0128
     10 C         140.7178  144.4371  163.6590 C.ar    1  UNL1        0.0578
     11 CL        140.1897  145.5834  162.8484 Cl      1  UNL1       -0.0822
     12 C         141.8844  143.6385  163.1576 C.ar    1  UNL1        0.0128
     13 C         142.4125  142.4922  163.9682 C.ar    1  UNL1        0.0211
     14 O         143.7868  138.7666  164.7437 O.3     1  UNL1       -0.4091
     15 C         142.6343  138.5251  163.8144 C.ar    1  UNL1        0.1503
     16 C         141.5253  137.5998  164.2196 C.ar    1  UNL1        0.0408
     17 C         140.3729  137.3583  163.2903 C.ar    1  UNL1        0.0400
     18 C         140.3294  138.0421  161.9559 C.ar    1  UNL1        0.1393
     19 C         141.4383  138.9673  161.5508 C.ar    1  UNL1        0.0400
     20 C         142.5908  139.2088  162.4800 C.ar    1  UNL1        0.0408
     21 O         139.1769  137.8005  161.0267 O.3     1  UNL1       -0.4706
     22 C         137.8756  138.5140  161.2445 C.3     1  UNL1        0.2320
     23 C         137.8707  139.9580  161.6507 C.ar    1  UNL1        0.0212
     24 C         137.6315  140.3333  163.0832 C.ar    1  UNL1       -0.0007
     25 C         137.6266  141.7773  163.4893 C.ar    1  UNL1       -0.0002
     26 C         137.8610  142.8458  162.4631 C.ar    1  UNL1       -0.0000
     27 C         138.1002  142.4705  161.0306 C.ar    1  UNL1       -0.0002
     28 C         138.1051  141.0266  160.6245 C.ar    1  UNL1       -0.0007
     29 C         142.6160  139.8216  168.3860 C.3     1  UNL1        0.1485
     30 C         141.7354  140.8462  169.0377 C.ar    1  UNL1       -0.0004
     31 C         142.2646  142.2219  169.3161 C.ar    1  UNL1       -0.0026
     32 C         141.3841  143.2465  169.9679 C.ar    1  UNL1       -0.0003
     33 C         139.9744  142.8954  170.3414 C.ar    1  UNL1       -0.0000
     34 C         139.4452  141.5197  170.0631 C.ar    1  UNL1       -0.0003
     35 C         140.3257  140.4951  169.4113 C.ar    1  UNL1       -0.0026
@<TRIPOS>BOND
     1     1     2    2
     2     2    14    1
     3    14    15    1
     4    15    16   ar
     5    16    17   ar
     6    17    18   ar
     7    18    21    1
     8    21    22    1
     9    22    23    1
    10    23    24   ar
    11    24    25   ar
    12    25    26   ar
    13    26    27   ar
    14    27    28   ar
    15    18    19   ar
    16    19    20   ar
    17     2     3   am
    18     3    29    1
    19    29    30    1
    20    30    31   ar
    21    31    32   ar
    22    32    33   ar
    23    33    34   ar
    24    34    35   ar
    25     3     4    1
    26     4     5    2
    27     4     6    2
    28     4     7    1
    29     7     8   ar
    30     8     9   ar
    31     9    10   ar
    32    10    11    1
    33    10    12   ar
    34    12    13   ar
    35    20    15   ar
    36    35    30   ar
    37    13     7   ar
    38    28    23   ar
@<TRIPOS>MOLECULE
*****
 35 38 0 0 0
SMALL
GASTEIGER

@<TRIPOS>ATOM
      1 O         137.3536  138.7371  166.8640 O.2     1  UNL1       -0.2241
      2 C         138.6055  139.1256  166.1348 C.2     1  UNL1        0.4287
      3 N         139.7094  139.8327  166.8639 N.am    1  UNL1       -0.1210
      4 S         140.9613  140.2213  166.1347 S.O2    1  UNL1        0.0814
      5 O         140.4219  141.6084  165.9477 O.2     1  UNL1       -0.1496
      6 O         141.5007  138.8342  166.3217 O.2     1  UNL1       -0.1496
      7 C         142.2132  140.6098  165.4055 C.ar    1  UNL1        0.1257
      8 C         142.7080  139.7705  164.2651 C.ar    1  UNL1        0.0211
      9 C         143.9600  140.1591  163.5359 C.ar    1  UNL1        0.0128
     10 C         144.7170  141.3869  163.9471 C.ar    1  UNL1        0.0578
     11 CL        145.9690  141.7754  163.2179 Cl      1  UNL1       -0.0822
     12 C         144.2222  142.2263  165.0876 C.ar    1  UNL1        0.0128
     13 C         142.9703  141.8377  165.8168 C.ar    1  UNL1        0.0211
     14 O         138.7536  138.8071  164.6765 O.3     1  UNL1       -0.4091
     15 C         138.6844  139.9061  163.6579 C.ar    1  UNL1        0.1503
     16 C         139.5167  139.8279  162.4125 C.ar    1  UNL1        0.0408
     17 C         139.4474  140.9269  161.3940 C.ar    1  UNL1        0.0400
     18 C         138.5460  142.1041  161.6210 C.ar    1  UNL1        0.1393
     19 C         137.7137  142.1824  162.8664 C.ar    1  UNL1        0.0400
     20 C         137.7830  141.0834  163.8849 C.ar    1  UNL1        0.0408
     21 O         138.4768  143.2032  160.6024 O.3     1  UNL1       -0.4706
     22 C         139.7171  143.9605  160.2308 C.3     1  UNL1        0.2320
     23 C         140.7268  144.3091  161.2839 C.ar    1  UNL1        0.0212
     24 C         140.3210  145.1363  162.4676 C.ar    1  UNL1       -0.0007
     25 C         141.3307  145.4848  163.5206 C.ar    1  UNL1       -0.0002
     26 C         142.7463  145.0061  163.3900 C.ar    1  UNL1       -0.0000
     27 C         143.1521  144.1789  162.2064 C.ar    1  UNL1       -0.0002
     28 C         142.1424  143.8304  161.1533 C.ar    1  UNL1       -0.0007
     29 C         139.5613  140.1512  168.3222 C.3     1  UNL1        0.1485
     30 C         140.5852  141.0035  169.0114 C.ar    1  UNL1       -0.0004
     31 C         140.3161  142.4613  169.2410 C.ar    1  UNL1       -0.0026
     32 C         141.3400  143.3135  169.9302 C.ar    1  UNL1       -0.0003
     33 C         142.6332  142.7081  170.3899 C.ar    1  UNL1       -0.0000
     34 C         142.9023  141.2505  170.1603 C.ar    1  UNL1       -0.0003
     35 C         141.8784  140.3981  169.4711 C.ar    1  UNL1       -0.0026
@<TRIPOS>BOND
     1     1     2    2
     2     2    14    1
     3    14    15    1
     4    15    16   ar
     5    16    17   ar
     6    17    18   ar
     7    18    21    1
     8    21    22    1
     9    22    23    1
    10    23    24   ar
    11    24    25   ar
    12    25    26   ar
    13    26    27   ar
    14    27    28   ar
    15    18    19   ar
    16    19    20   ar
    17     2     3   am
    18     3    29    1
    19    29    30    1
    20    30    31   ar
    21    31    32   ar
    22    32    33   ar
    23    33    34   ar
    24    34    35   ar
    25     3     4    1
    26     4     5    2
    27     4     6    2
    28     4     7    1
    29     7     8   ar
    30     8     9   ar
    31     9    10   ar
    32    10    11    1
    33    10    12   ar
    34    12    13   ar
    35    20    15   ar
    36    35    30   ar
    37    13     7   ar
    38    28    23   ar
@<TRIPOS>MOLECULE
*****
 35 38 0 0 0
SMALL
GASTEIGER

@<TRIPOS>ATOM
      1 O         137.7091  138.3931  167.3507 O.2     1  UNL1       -0.2241
      2 C         138.4816  139.3266  166.4664 C.2     1  UNL1        0.4287
      3 N         139.5967  140.1509  167.0385 N.am    1  UNL1       -0.1210
      4 S         140.3692  141.0844  166.1543 S.O2    1  UNL1        0.0814
      5 O         141.4917  140.0917  166.0870 O.2     1  UNL1       -0.1496
      6 O         139.2466  142.0771  166.2215 O.2     1  UNL1       -0.1496
      7 C         141.1417  142.0178  165.2700 C.ar    1  UNL1        0.1257
      8 C         140.6258  142.3544  163.9023 C.ar    1  UNL1        0.0211
      9 C         141.3983  143.2878  163.0181 C.ar    1  UNL1        0.0128
     10 C         142.6867  143.8847  163.5015 C.ar    1  UNL1        0.0578
     11 CL        143.4592  144.8182  162.6173 Cl      1  UNL1       -0.0822
     12 C         143.2026  143.5482  164.8693 C.ar    1  UNL1        0.0128
     13 C         142.4301  142.6148  165.7535 C.ar    1  UNL1        0.0211
     14 O         138.1392  139.4356  165.0101 O.3     1  UNL1       -0.4091
     15 C         139.0984  138.9290  163.9741 C.ar    1  UNL1        0.1503
     16 C         139.9594  137.7365  164.2684 C.ar    1  UNL1        0.0408
     17 C         140.9185  137.2300  163.2324 C.ar    1  UNL1        0.0400
     18 C         141.0168  137.9159  161.9020 C.ar    1  UNL1        0.1393
     19 C         140.1558  139.1085  161.6077 C.ar    1  UNL1        0.0400
     20 C         139.1967  139.6150  162.6437 C.ar    1  UNL1        0.0408
     21 O         141.9760  137.4093  160.8660 O.3     1  UNL1       -0.4706
     22 C         143.4519  137.6000  161.0534 C.3     1  UNL1        0.2320
     23 C         143.9668  138.8164  161.7642 C.ar    1  UNL1        0.0212
     24 C         144.1244  140.1093  161.0202 C.ar    1  UNL1       -0.0007
     25 C         144.6393  141.3257  161.7311 C.ar    1  UNL1       -0.0002
     26 C         144.9965  141.2492  163.1859 C.ar    1  UNL1       -0.0000
     27 C         144.8388  139.9563  163.9299 C.ar    1  UNL1       -0.0002
     28 C         144.3240  138.7400  163.2191 C.ar    1  UNL1       -0.0007
     29 C         139.9391  140.0419  168.4948 C.3     1  UNL1        0.1485
     30 C         140.9223  140.9947  169.1074 C.ar    1  UNL1       -0.0004
     31 C         142.3358  140.5579  169.3547 C.ar    1  UNL1       -0.0026
     32 C         143.3190  141.5108  169.9674 C.ar    1  UNL1       -0.0003
     33 C         142.8887  142.9005  170.3327 C.ar    1  UNL1       -0.0000
     34 C         141.4752  143.3373  170.0854 C.ar    1  UNL1       -0.0003
     35 C         140.4919  142.3845  169.4728 C.ar    1  UNL1       -0.0026
@<TRIPOS>BOND
     1     1     2    2
     2     2    14    1
     3    14    15    1
     4    15    16   ar
     5    16    17   ar
     6    17    18   ar
     7    18    21    1
     8    21    22    1
     9    22    23    1
    10    23    24   ar
    11    24    25   ar
    12    25    26   ar
    13    26    27   ar
    14    27    28   ar
    15    18    19   ar
    16    19    20   ar
    17     2     3   am
    18     3    29    1
    19    29    30    1
    20    30    31   ar
    21    31    32   ar
    22    32    33   ar
    23    33    34   ar
    24    34    35   ar
    25     3     4    1
    26     4     5    2
    27     4     6    2
    28     4     7    1
    29     7     8   ar
    30     8     9   ar
    31     9    10   ar
    32    10    11    1
    33    10    12   ar
    34    12    13   ar
    35    20    15   ar
    36    35    30   ar
    37    13     7   ar
    38    28    23   ar
@<TRIPOS>MOLECULE
*****
 35 38 0 0 0
SMALL
GASTEIGER

@<TRIPOS>ATOM
      1 O         139.4387  139.8790  167.5636 O.2     1  UNL1       -0.2241
      2 C         139.7425  139.6245  166.1169 C.2     1  UNL1        0.4287
      3 N         141.1010  139.1352  165.7106 N.am    1  UNL1       -0.1210
      4 S         141.4048  138.8807  164.2639 S.O2    1  UNL1        0.0814
      5 O         140.8519  137.4922  164.3921 O.2     1  UNL1       -0.1496
      6 O         141.9577  140.2691  164.1357 O.2     1  UNL1       -0.1496
      7 C         141.7085  138.6261  162.8172 C.ar    1  UNL1        0.1257
      8 C         143.0800  138.1788  162.4062 C.ar    1  UNL1        0.0211
      9 C         143.3837  137.9243  160.9595 C.ar    1  UNL1        0.0128
     10 C         142.3160  138.1171  159.9238 C.ar    1  UNL1        0.0578
     11 CL        142.6198  137.8625  158.4771 Cl      1  UNL1       -0.0822
     12 C         140.9445  138.5644  160.3348 C.ar    1  UNL1        0.0128
     13 C         140.6407  138.8190  161.7815 C.ar    1  UNL1        0.0211
     14 O         138.6878  139.8593  165.0765 O.3     1  UNL1       -0.4091
     15 C         138.5923  141.1908  164.3925 C.ar    1  UNL1        0.1503
     16 C         138.1264  141.2710  162.9689 C.ar    1  UNL1        0.0408
     17 C         138.0309  142.6025  162.2849 C.ar    1  UNL1        0.0400
     18 C         138.4013  143.8539  163.0244 C.ar    1  UNL1        0.1393
     19 C         138.8671  143.7737  164.4480 C.ar    1  UNL1        0.0400
     20 C         138.9626  142.4422  165.1320 C.ar    1  UNL1        0.0408
     21 O         138.3058  145.1854  162.3404 O.3     1  UNL1       -0.4706
     22 C         139.5535  145.9465  162.0031 C.3     1  UNL1        0.2320
     23 C         140.8935  145.2846  162.1309 C.ar    1  UNL1        0.0212
     24 C         141.7317  145.5176  163.3529 C.ar    1  UNL1       -0.0007
     25 C         143.0716  144.8556  163.4807 C.ar    1  UNL1       -0.0002
     26 C         143.5734  143.9606  162.3865 C.ar    1  UNL1       -0.0000
     27 C         142.7353  143.7276  161.1645 C.ar    1  UNL1       -0.0002
     28 C         141.3954  144.3896  161.0367 C.ar    1  UNL1       -0.0007
     29 C         142.1557  138.9004  166.7510 C.3     1  UNL1        0.1485
     30 C         142.5502  140.0081  167.6823 C.ar    1  UNL1       -0.0004
     31 C         142.6601  139.7463  169.1552 C.ar    1  UNL1       -0.0026
     32 C         143.0545  140.8540  170.0865 C.ar    1  UNL1       -0.0003
     33 C         143.3392  142.2236  169.5449 C.ar    1  UNL1       -0.0000
     34 C         143.2294  142.4854  168.0721 C.ar    1  UNL1       -0.0003
     35 C         142.8349  141.3777  167.1407 C.ar    1  UNL1       -0.0026
@<TRIPOS>BOND
     1     1     2    2
     2     2    14    1
     3    14    15    1
     4    15    16   ar
     5    16    17   ar
     6    17    18   ar
     7    18    21    1
     8    21    22    1
     9    22    23    1
    10    23    24   ar
    11    24    25   ar
    12    25    26   ar
    13    26    27   ar
    14    27    28   ar
    15    18    19   ar
    16    19    20   ar
    17     2     3   am
    18     3    29    1
    19    29    30    1
    20    30    31   ar
    21    31    32   ar
    22    32    33   ar
    23    33    34   ar
    24    34    35   ar
    25     3     4    1
    26     4     5    2
    27     4     6    2
    28     4     7    1
    29     7     8   ar
    30     8     9   ar
    31     9    10   ar
    32    10    11    1
    33    10    12   ar
    34    12    13   ar
    35    20    15   ar
    36    35    30   ar
    37    13     7   ar
    38    28    23   ar
@<TRIPOS>MOLECULE
*****
 35 38 0 0 0
SMALL
GASTEIGER

@<TRIPOS>ATOM
      1 O         137.4053  140.2248  161.2054 O.2     1  UNL1       -0.2241
      2 C         138.0872  140.3664  162.5339 C.2     1  UNL1        0.4287
      3 N         139.0055  139.2865  163.0245 N.am    1  UNL1       -0.1210
      4 S         139.6873  139.4281  164.3530 S.O2    1  UNL1        0.0814
      5 O         138.4993  138.8100  165.0286 O.2     1  UNL1       -0.1496
      6 O         140.8754  140.0461  163.6774 O.2     1  UNL1       -0.1496
      7 C         140.3692  139.5697  165.6816 C.ar    1  UNL1        0.1257
      8 C         141.8507  139.3618  165.7901 C.ar    1  UNL1        0.0211
      9 C         142.5326  139.5034  167.1187 C.ar    1  UNL1        0.0128
     10 C         141.7329  139.8528  168.3386 C.ar    1  UNL1        0.0578
     11 CL        142.4148  139.9944  169.6672 Cl      1  UNL1       -0.0822
     12 C         140.2513  140.0607  168.2301 C.ar    1  UNL1        0.0128
     13 C         139.5694  139.9191  166.9016 C.ar    1  UNL1        0.0211
     14 O         137.8507  141.5878  163.3719 O.3     1  UNL1       -0.4091
     15 C         138.9274  142.6233  163.5090 C.ar    1  UNL1        0.1503
     16 C         139.5680  143.2058  162.2842 C.ar    1  UNL1        0.0408
     17 C         140.6446  144.2412  162.4213 C.ar    1  UNL1        0.0400
     18 C         141.0806  144.6940  163.7832 C.ar    1  UNL1        0.1393
     19 C         140.4400  144.1115  165.0080 C.ar    1  UNL1        0.0400
     20 C         139.3634  143.0761  164.8709 C.ar    1  UNL1        0.0408
     21 O         142.1573  145.7295  163.9203 O.3     1  UNL1       -0.4706
     22 C         143.5671  145.3110  164.2152 C.3     1  UNL1        0.2320
     23 C         144.0456  143.9485  163.8092 C.ar    1  UNL1        0.0212
     24 C         144.3984  143.6732  162.3776 C.ar    1  UNL1       -0.0007
     25 C         144.8768  142.3108  161.9717 C.ar    1  UNL1       -0.0002
     26 C         145.0023  141.2235  162.9974 C.ar    1  UNL1       -0.0000
     27 C         144.6495  141.4988  164.4291 C.ar    1  UNL1       -0.0002
     28 C         144.1711  142.8612  164.8350 C.ar    1  UNL1       -0.0007
     29 C         139.2419  138.0651  162.1865 C.3     1  UNL1        0.1485
     30 C         140.3064  138.0752  161.1297 C.ar    1  UNL1       -0.0004
     31 C         139.9554  138.4291  159.7149 C.ar    1  UNL1       -0.0026
     32 C         141.0198  138.4392  158.6582 C.ar    1  UNL1       -0.0003
     33 C         142.4353  138.0953  159.0161 C.ar    1  UNL1       -0.0000
     34 C         142.7863  137.7414  160.4309 C.ar    1  UNL1       -0.0003
     35 C         141.7219  137.7313  161.4877 C.ar    1  UNL1       -0.0026
@<TRIPOS>BOND
     1     1     2    2
     2     2    14    1
     3    14    15    1
     4    15    16   ar
     5    16    17   ar
     6    17    18   ar
     7    18    21    1
     8    21    22    1
     9    22    23    1
    10    23    24   ar
    11    24    25   ar
    12    25    26   ar
    13    26    27   ar
    14    27    28   ar
    15    18    19   ar
    16    19    20   ar
    17     2     3   am
    18     3    29    1
    19    29    30    1
    20    30    31   ar
    21    31    32   ar
    22    32    33   ar
    23    33    34   ar
    24    34    35   ar
    25     3     4    1
    26     4     5    2
    27     4     6    2
    28     4     7    1
    29     7     8   ar
    30     8     9   ar
    31     9    10   ar
    32    10    11    1
    33    10    12   ar
    34    12    13   ar
    35    20    15   ar
    36    35    30   ar
    37    13     7   ar
    38    28    23   ar
@<TRIPOS>MOLECULE
*****
 35 38 0 0 0
SMALL
GASTEIGER

@<TRIPOS>ATOM
      1 O         138.3511  139.6561  158.3666 O.2     1  UNL1       -0.2241
      2 C         139.0073  139.4535  159.7002 C.2     1  UNL1        0.4287
      3 N         140.4982  139.3138  159.7889 N.am    1  UNL1       -0.1210
      4 S         141.1544  139.1112  161.1225 S.O2    1  UNL1        0.0814
      5 O         140.7791  137.6594  161.0866 O.2     1  UNL1       -0.1496
      6 O         141.5297  140.5631  161.1584 O.2     1  UNL1       -0.1496
      7 C         141.8106  138.9086  162.4560 C.ar    1  UNL1        0.1257
      8 C         141.0337  138.3103  163.5911 C.ar    1  UNL1        0.0211
      9 C         141.6899  138.1077  164.9246 C.ar    1  UNL1        0.0128
     10 C         143.1230  138.5035  165.1231 C.ar    1  UNL1        0.0578
     11 CL        143.7792  138.3009  166.4567 Cl      1  UNL1       -0.0822
     12 C         143.9000  139.1019  163.9881 C.ar    1  UNL1        0.0128
     13 C         143.2438  139.3044  162.6545 C.ar    1  UNL1        0.0211
     14 O         138.1727  139.3905  160.9449 O.3     1  UNL1       -0.4091
     15 C         138.0477  140.5981  161.8260 C.ar    1  UNL1        0.1503
     16 C         138.1867  141.9718  161.2399 C.ar    1  UNL1        0.0408
     17 C         138.0617  143.1793  162.1210 C.ar    1  UNL1        0.0400
     18 C         137.7978  143.0130  163.5882 C.ar    1  UNL1        0.1393
     19 C         137.6588  141.6393  164.1743 C.ar    1  UNL1        0.0400
     20 C         137.7838  140.4319  163.2932 C.ar    1  UNL1        0.0408
     21 O         137.6728  144.2206  164.4693 O.3     1  UNL1       -0.4706
     22 C         138.8846  144.7757  165.1572 C.3     1  UNL1        0.2320
     23 C         140.1106  143.9264  165.3184 C.ar    1  UNL1        0.0212
     24 C         141.2424  144.0502  164.3420 C.ar    1  UNL1       -0.0007
     25 C         142.4683  143.2010  164.5032 C.ar    1  UNL1       -0.0002
     26 C         142.5622  142.2279  165.6408 C.ar    1  UNL1       -0.0000
     27 C         141.4304  142.1040  166.6173 C.ar    1  UNL1       -0.0002
     28 C         140.2045  142.9533  166.4561 C.ar    1  UNL1       -0.0007
     29 C         141.3328  139.3768  158.5442 C.3     1  UNL1        0.1485
     30 C         141.5141  138.1502  157.7000 C.ar    1  UNL1       -0.0004
     31 C         142.7063  137.2645  157.9102 C.ar    1  UNL1       -0.0026
     32 C         142.8876  136.0380  157.0660 C.ar    1  UNL1       -0.0003
     33 C         141.8767  135.6971  156.0116 C.ar    1  UNL1       -0.0000
     34 C         140.6844  136.5827  155.8014 C.ar    1  UNL1       -0.0003
     35 C         140.5031  137.8093  156.6456 C.ar    1  UNL1       -0.0026
@<TRIPOS>BOND
     1     1     2    2
     2     2    14    1
     3    14    15    1
     4    15    16   ar
     5    16    17   ar
     6    17    18   ar
     7    18    21    1
     8    21    22    1
     9    22    23    1
    10    23    24   ar
    11    24    25   ar
    12    25    26   ar
    13    26    27   ar
    14    27    28   ar
    15    18    19   ar
    16    19    20   ar
    17     2     3   am
    18     3    29    1
    19    29    30    1
    20    30    31   ar
    21    31    32   ar
    22    32    33   ar
    23    33    34   ar
    24    34    35   ar
    25     3     4    1
    26     4     5    2
    27     4     6    2
    28     4     7    1
    29     7     8   ar
    30     8     9   ar
    31     9    10   ar
    32    10    11    1
    33    10    12   ar
    34    12    13   ar
    35    20    15   ar
    36    35    30   ar
    37    13     7   ar
    38    28    23   ar
@<TRIPOS>MOLECULE
*****
 35 38 0 0 0
SMALL
GASTEIGER

@<TRIPOS>ATOM
      1 O         139.1265  137.5737  161.3416 O.2     1  UNL1       -0.2241
      2 C         139.4824  138.1335  162.6870 C.2     1  UNL1        0.4287
      3 N         138.7510  139.3303  163.2187 N.am    1  UNL1       -0.1210
      4 S         139.1070  139.8901  164.5640 S.O2    1  UNL1        0.0814
      5 O         138.1831  138.9059  165.2180 O.2     1  UNL1       -0.1496
      6 O         140.0309  140.8743  163.9100 O.2     1  UNL1       -0.1496
      7 C         139.4630  140.4499  165.9094 C.ar    1  UNL1        0.1257
      8 C         140.1036  141.8022  166.0134 C.ar    1  UNL1        0.0211
      9 C         140.4595  142.3620  167.3587 C.ar    1  UNL1        0.0128
     10 C         140.1750  141.5695  168.6000 C.ar    1  UNL1        0.0578
     11 CL        140.5309  142.1293  169.9454 Cl      1  UNL1       -0.0822
     12 C         139.5344  140.2171  168.4960 C.ar    1  UNL1        0.0128
     13 C         139.1784  139.6573  167.1507 C.ar    1  UNL1        0.0211
     14 O         140.5697  137.4965  163.5005 O.3     1  UNL1       -0.4091
     15 C         141.8877  138.1931  163.6674 C.ar    1  UNL1        0.1503
     16 C         142.6907  138.5780  162.4603 C.ar    1  UNL1        0.0408
     17 C         144.0086  139.2746  162.6272 C.ar    1  UNL1        0.0400
     18 C         144.5235  139.5863  164.0012 C.ar    1  UNL1        0.1393
     19 C         143.7205  139.2014  165.2082 C.ar    1  UNL1        0.0400
     20 C         142.4026  138.5048  165.0413 C.ar    1  UNL1        0.0408
     21 O         145.8414  140.2829  164.1680 O.3     1  UNL1       -0.4706
     22 C         145.9719  141.7352  163.8165 C.3     1  UNL1        0.2320
     23 C         144.7446  142.5558  163.5508 C.ar    1  UNL1        0.0212
     24 C         144.3593  142.8942  162.1412 C.ar    1  UNL1       -0.0007
     25 C         143.1321  143.7147  161.8756 C.ar    1  UNL1       -0.0002
     26 C         142.2902  144.1969  163.0196 C.ar    1  UNL1       -0.0000
     27 C         142.6755  143.8585  164.4292 C.ar    1  UNL1       -0.0002
     28 C         143.9027  143.0380  164.6948 C.ar    1  UNL1       -0.0007
     29 C         137.6637  139.9673  162.4051 C.3     1  UNL1        0.1485
     30 C         138.0068  140.7230  161.1557 C.ar    1  UNL1       -0.0004
     31 C         138.5963  142.0992  161.2495 C.ar    1  UNL1       -0.0026
     32 C         138.9394  142.8549  160.0000 C.ar    1  UNL1       -0.0003
     33 C         138.6929  142.2345  158.6567 C.ar    1  UNL1       -0.0000
     34 C         138.1034  140.8584  158.5629 C.ar    1  UNL1       -0.0003
     35 C         137.7603  140.1026  159.8124 C.ar    1  UNL1       -0.0026
@<TRIPOS>BOND
     1     1     2    2
     2     2    14    1
     3    14    15    1
     4    15    16   ar
     5    16    17   ar
     6    17    18   ar
     7    18    21    1
     8    21    22    1
     9    22    23    1
    10    23    24   ar
    11    24    25   ar
    12    25    26   ar
    13    26    27   ar
    14    27    28   ar
    15    18    19   ar
    16    19    20   ar
    17     2     3   am
    18     3    29    1
    19    29    30    1
    20    30    31   ar
    21    31    32   ar
    22    32    33   ar
    23    33    34   ar
    24    34    35   ar
    25     3     4    1
    26     4     5    2
    27     4     6    2
    28     4     7    1
    29     7     8   ar
    30     8     9   ar
    31     9    10   ar
    32    10    11    1
    33    10    12   ar
    34    12    13   ar
    35    20    15   ar
    36    35    30   ar
    37    13     7   ar
    38    28    23   ar
@<TRIPOS>MOLECULE
*****
 35 38 0 0 0
SMALL
GASTEIGER

@<TRIPOS>ATOM
      1 O         138.7087  139.6508  157.3018 O.2     1  UNL1       -0.2241
      2 C         138.5687  140.3194  158.6372 C.2     1  UNL1        0.4287
      3 N         139.1267  141.6956  158.8491 N.am    1  UNL1       -0.1210
      4 S         138.9867  142.3642  160.1845 S.O2    1  UNL1        0.0814
      5 O         140.4154  142.0333  160.4999 O.2     1  UNL1       -0.1496
      6 O         137.5581  142.6951  159.8691 O.2     1  UNL1       -0.1496
      7 C         138.8468  143.0328  161.5200 C.ar    1  UNL1        0.1257
      8 C         139.6600  144.2527  161.8369 C.ar    1  UNL1        0.0211
      9 C         139.5200  144.9213  163.1723 C.ar    1  UNL1        0.0128
     10 C         138.5668  144.3700  164.1908 C.ar    1  UNL1        0.0578
     11 CL        138.4269  145.0386  165.5263 Cl      1  UNL1       -0.0822
     12 C         137.7536  143.1500  163.8740 C.ar    1  UNL1        0.0128
     13 C         137.8935  142.4814  162.5385 C.ar    1  UNL1        0.0211
     14 O         137.8708  139.6119  159.7607 O.3     1  UNL1       -0.4091
     15 C         138.6714  138.9610  160.8495 C.ar    1  UNL1        0.1503
     16 C         138.0316  138.6574  162.1718 C.ar    1  UNL1        0.0408
     17 C         138.8322  138.0065  163.2605 C.ar    1  UNL1        0.0400
     18 C         140.2727  137.6594  163.0270 C.ar    1  UNL1        0.1393
     19 C         140.9125  137.9630  161.7048 C.ar    1  UNL1        0.0400
     20 C         140.1119  138.6138  160.6160 C.ar    1  UNL1        0.0408
     21 O         141.0733  137.0085  164.1158 O.3     1  UNL1       -0.4706
     22 C         141.8760  137.8509  165.0624 C.3     1  UNL1        0.2320
     23 C         141.4591  139.2633  165.3474 C.ar    1  UNL1        0.0212
     24 C         140.4637  139.5470  166.4331 C.ar    1  UNL1       -0.0007
     25 C         140.0468  140.9594  166.7181 C.ar    1  UNL1       -0.0002
     26 C         140.6254  142.0882  165.9174 C.ar    1  UNL1       -0.0000
     27 C         141.6209  141.8046  164.8318 C.ar    1  UNL1       -0.0002
     28 C         142.0377  140.3922  164.5468 C.ar    1  UNL1       -0.0007
     29 C         139.8246  142.4031  157.7256 C.3     1  UNL1        0.1485
     30 C         139.0471  143.2931  156.8019 C.ar    1  UNL1       -0.0004
     31 C         137.6965  142.8656  156.3088 C.ar    1  UNL1       -0.0026
     32 C         136.9190  143.7556  155.3851 C.ar    1  UNL1       -0.0003
     33 C         137.4921  145.0733  154.9544 C.ar    1  UNL1       -0.0000
     34 C         138.8426  145.5008  155.4475 C.ar    1  UNL1       -0.0003
     35 C         139.6202  144.6108  156.3713 C.ar    1  UNL1       -0.0026
@<TRIPOS>BOND
     1     1     2    2
     2     2    14    1
     3    14    15    1
     4    15    16   ar
     5    16    17   ar
     6    17    18   ar
     7    18    21    1
     8    21    22    1
     9    22    23    1
    10    23    24   ar
    11    24    25   ar
    12    25    26   ar
    13    26    27   ar
    14    27    28   ar
    15    18    19   ar
    16    19    20   ar
    17     2     3   am
    18     3    29    1
    19    29    30    1
    20    30    31   ar
    21    31    32   ar
    22    32    33   ar
    23    33    34   ar
    24    34    35   ar
    25     3     4    1
    26     4     5    2
    27     4     6    2
    28     4     7    1
    29     7     8   ar
    30     8     9   ar
    31     9    10   ar
    32    10    11    1
    33    10    12   ar
    34    12    13   ar
    35    20    15   ar
    36    35    30   ar
    37    13     7   ar
    38    28    23   ar
