@<TRIPOS>MOLECULE
*****
 32 37 0 0 0
SMALL
GASTEIGER

@<TRIPOS>ATOM
      1 C         138.7728  139.2718  163.8246 C.ar    1  UNL1        0.0377
      2 C         139.1265  138.0198  163.0780 C.ar    1  UNL1        0.0031
      3 C         139.1626  138.0257  161.5785 C.ar    1  UNL1        0.0002
      4 C         138.8451  139.2836  160.8255 C.ar    1  UNL1        0.0042
      5 C         138.8813  139.2895  159.3260 C.ar    1  UNL1        0.0208
      6 C         138.5637  140.5473  158.5731 C.ar    1  UNL1        0.1003
      7 N         138.2100  141.7993  159.3197 N.ar    1  UNL1       -0.2294
      8 C         138.1739  141.7935  160.8192 C.ar    1  UNL1        0.1284
      9 C         138.4914  140.5356  161.5722 C.ar    1  UNL1        0.0315
     10 C         138.4553  140.5296  163.0718 C.ar    1  UNL1        0.0059
     11 C         143.5024  142.2105  169.3657 C.3     1  UNL1        0.1124
     12 N         142.2421  141.4463  169.6443 N.pl3   1  UNL1       -0.2987
     13 C         141.8119  141.1996  171.0600 C.3     1  UNL1        0.1387
     14 C         140.5516  140.4354  171.3385 C.3     1  UNL1        0.2269
     15 O         139.7215  139.9178  170.2015 O.3     1  UNL1       -0.4692
     16 C         140.1516  140.1645  168.7859 C.ar    1  UNL1        0.1907
     17 C         141.4119  140.9287  168.5073 C.ar    1  UNL1        0.1067
     18 C         141.8420  141.1753  167.0915 C.ar    1  UNL1        0.1382
     19 N         141.0119  140.6577  165.9545 N.ar    1  UNL1       -0.1593
     20 N         139.7516  139.8935  166.2331 N.ar    1  UNL1       -0.1884
     21 C         138.7367  139.2659  165.3242 C.ar    1  UNL1        0.1866
     22 N         137.6793  138.6314  166.1782 N.ar    1  UNL1       -0.1268
     23 N         138.0407  138.8668  167.6149 N.ar    1  UNL1       -0.1237
     24 C         139.3215  139.6469  167.6487 C.ar    1  UNL1        0.2217
     25 N         137.8202  143.0455  161.5659 N.pl3   1  UNL1       -0.3197
     26 H         136.9134  143.4220  161.4939 H       1  UNL1        0.1481
     27 C         138.8481  143.7236  162.4223 C.3     1  UNL1        0.0704
     28 C         138.4897  144.1784  163.8061 C.3     1  UNL1        0.0195
     29 C         139.5176  144.8565  164.6626 C.3     1  UNL1        0.0017
     30 C         140.9040  145.0798  164.1351 C.3     1  UNL1        0.0001
     31 C         141.2625  144.6251  162.7514 C.3     1  UNL1        0.0017
     32 C         140.2345  143.9470  161.8950 C.3     1  UNL1        0.0195
@<TRIPOS>BOND
     1    11    12    1
     2    12    13    1
     3    13    14    1
     4    14    15    1
     5    15    16    1
     6    16    17   ar
     7    17    18   ar
     8    18    19   ar
     9    19    20   ar
    10    20    21   ar
    11    21     1    1
    12     1     2   ar
    13     2     3   ar
    14     3     4   ar
    15     4     5   ar
    16     5     6   ar
    17     6     7   ar
    18     7     8   ar
    19     8    25    1
    20    25    27    1
    21    27    28    1
    22    28    29    1
    23    29    30    1
    24    30    31    1
    25    31    32    1
    26     8     9   ar
    27     9    10   ar
    28    21    22   ar
    29    22    23   ar
    30    23    24   ar
    31    17    12    1
    32    24    20   ar
    33    24    16   ar
    34    10     1   ar
    35     9     4   ar
    36    32    27    1
    37    25    26    1
@<TRIPOS>MOLECULE
*****
 32 37 0 0 0
SMALL
GASTEIGER

@<TRIPOS>ATOM
      1 C         139.1707  138.9601  163.6435 C.ar    1  UNL1        0.0377
      2 C         137.9885  139.2070  162.7537 C.ar    1  UNL1        0.0031
      3 C         138.1384  139.1125  161.2643 C.ar    1  UNL1        0.0002
      4 C         139.4702  138.7712  160.6645 C.ar    1  UNL1        0.0042
      5 C         139.6199  138.6768  159.1750 C.ar    1  UNL1        0.0208
      6 C         140.9518  138.3355  158.5753 C.ar    1  UNL1        0.1003
      7 N         142.1339  138.0887  159.4650 N.ar    1  UNL1       -0.2294
      8 C         141.9842  138.1831  160.9545 C.ar    1  UNL1        0.1284
      9 C         140.6523  138.5244  161.5543 C.ar    1  UNL1        0.0315
     10 C         140.5025  138.6189  163.0439 C.ar    1  UNL1        0.0059
     11 C         143.5272  142.1858  169.3290 C.3     1  UNL1        0.1124
     12 N         142.2337  141.4618  169.5590 N.pl3   1  UNL1       -0.2987
     13 C         141.6925  141.3167  170.9503 C.3     1  UNL1        0.1387
     14 C         140.3991  140.5927  171.1803 C.3     1  UNL1        0.2269
     15 O         139.6468  140.0138  170.0189 O.3     1  UNL1       -0.4692
     16 C         140.1880  140.1589  168.6275 C.ar    1  UNL1        0.1907
     17 C         141.4815  140.8829  168.3975 C.ar    1  UNL1        0.1067
     18 C         142.0227  141.0280  167.0060 C.ar    1  UNL1        0.1382
     19 N         141.2704  140.4491  165.8446 N.ar    1  UNL1       -0.1593
     20 N         139.9770  139.7251  166.0745 N.ar    1  UNL1       -0.1884
     21 C         139.0209  139.0546  165.1331 C.ar    1  UNL1        0.1866
     22 N         137.8889  138.4951  165.9427 N.ar    1  UNL1       -0.1268
     23 N         138.1453  138.8198  167.3845 N.ar    1  UNL1       -0.1237
     24 C         139.4358  139.5800  167.4659 C.ar    1  UNL1        0.2217
     25 N         143.1663  137.9363  161.8444 N.pl3   1  UNL1       -0.3197
     26 H         143.4452  137.0144  162.0480 H       1  UNL1        0.1481
     27 C         143.9233  139.0943  162.4240 C.3     1  UNL1        0.0704
     28 C         144.2124  140.2997  161.5793 C.3     1  UNL1        0.0195
     29 C         144.9695  141.4577  162.1590 C.3     1  UNL1        0.0017
     30 C         145.4374  141.4102  163.5833 C.3     1  UNL1        0.0001
     31 C         145.1484  140.2048  164.4280 C.3     1  UNL1        0.0017
     32 C         144.3913  139.0469  163.8484 C.3     1  UNL1        0.0195
@<TRIPOS>BOND
     1    11    12    1
     2    12    13    1
     3    13    14    1
     4    14    15    1
     5    15    16    1
     6    16    17   ar
     7    17    18   ar
     8    18    19   ar
     9    19    20   ar
    10    20    21   ar
    11    21     1    1
    12     1     2   ar
    13     2     3   ar
    14     3     4   ar
    15     4     5   ar
    16     5     6   ar
    17     6     7   ar
    18     7     8   ar
    19     8    25    1
    20    25    27    1
    21    27    28    1
    22    28    29    1
    23    29    30    1
    24    30    31    1
    25    31    32    1
    26     8     9   ar
    27     9    10   ar
    28    21    22   ar
    29    22    23   ar
    30    23    24   ar
    31    17    12    1
    32    24    20   ar
    33    24    16   ar
    34    10     1   ar
    35     9     4   ar
    36    32    27    1
    37    25    26    1
@<TRIPOS>MOLECULE
*****
 32 37 0 0 0
SMALL
GASTEIGER

@<TRIPOS>ATOM
      1 C         139.3251  141.8839  162.9058 C.ar    1  UNL1        0.0377
      2 C         138.3762  141.5214  161.8021 C.ar    1  UNL1        0.0031
      3 C         138.5114  142.1666  160.4548 C.ar    1  UNL1        0.0002
      4 C         139.5955  143.1742  160.2111 C.ar    1  UNL1        0.0042
      5 C         139.7306  143.8194  158.8637 C.ar    1  UNL1        0.0208
      6 C         140.8147  144.8271  158.6200 C.ar    1  UNL1        0.1003
      7 N         141.7636  145.1896  159.7237 N.ar    1  UNL1       -0.2294
      8 C         141.6285  144.5444  161.0711 C.ar    1  UNL1        0.1284
      9 C         140.5444  143.5367  161.3148 C.ar    1  UNL1        0.0315
     10 C         140.4092  142.8915  162.6622 C.ar    1  UNL1        0.0059
     11 C         143.4939  142.3008  169.5508 C.3     1  UNL1        0.1124
     12 N         142.2654  141.4589  169.3716 N.pl3   1  UNL1       -0.2987
     13 C         141.7577  140.6218  170.5079 C.3     1  UNL1        0.1387
     14 C         140.5292  139.7799  170.3288 C.3     1  UNL1        0.2269
     15 O         139.8085  139.7751  169.0133 O.3     1  UNL1       -0.4692
     16 C         140.3163  140.6123  167.8770 C.ar    1  UNL1        0.1907
     17 C         141.5447  141.4542  168.0562 C.ar    1  UNL1        0.1067
     18 C         142.0525  142.2914  166.9197 C.ar    1  UNL1        0.1382
     19 N         141.3318  142.2867  165.6043 N.ar    1  UNL1       -0.1593
     20 N         140.1033  141.4448  165.4251 N.ar    1  UNL1       -0.1884
     21 C         139.1900  141.2386  164.2533 C.ar    1  UNL1        0.1866
     22 N         138.1177  140.2741  164.6654 N.ar    1  UNL1       -0.1268
     23 N         138.3684  139.8841  166.0919 N.ar    1  UNL1       -0.1237
     24 C         139.5956  140.6076  166.5614 C.ar    1  UNL1        0.2217
     25 N         142.5774  144.9068  162.1749 N.pl3   1  UNL1       -0.3197
     26 H         142.5451  145.8050  162.5767 H       1  UNL1        0.1481
     27 C         143.5754  143.9007  162.6664 C.3     1  UNL1        0.0704
     28 C         143.9749  143.8851  164.1122 C.3     1  UNL1        0.0195
     29 C         144.9729  142.8790  164.6038 C.3     1  UNL1        0.0017
     30 C         145.5715  141.8885  163.6495 C.3     1  UNL1        0.0001
     31 C         145.1721  141.9041  162.2037 C.3     1  UNL1        0.0017
     32 C         144.1741  142.9102  161.7122 C.3     1  UNL1        0.0195
@<TRIPOS>BOND
     1    11    12    1
     2    12    13    1
     3    13    14    1
     4    14    15    1
     5    15    16    1
     6    16    17   ar
     7    17    18   ar
     8    18    19   ar
     9    19    20   ar
    10    20    21   ar
    11    21     1    1
    12     1     2   ar
    13     2     3   ar
    14     3     4   ar
    15     4     5   ar
    16     5     6   ar
    17     6     7   ar
    18     7     8   ar
    19     8    25    1
    20    25    27    1
    21    27    28    1
    22    28    29    1
    23    29    30    1
    24    30    31    1
    25    31    32    1
    26     8     9   ar
    27     9    10   ar
    28    21    22   ar
    29    22    23   ar
    30    23    24   ar
    31    17    12    1
    32    24    20   ar
    33    24    16   ar
    34    10     1   ar
    35     9     4   ar
    36    32    27    1
    37    25    26    1
@<TRIPOS>MOLECULE
*****
 32 37 0 0 0
SMALL
GASTEIGER

@<TRIPOS>ATOM
      1 C         138.8706  140.1329  164.7992 C.ar    1  UNL1        0.0377
      2 C         138.0552  139.2820  165.7272 C.ar    1  UNL1        0.0031
      3 C         138.3840  139.2405  167.1901 C.ar    1  UNL1        0.0002
      4 C         139.5280  140.0498  167.7250 C.ar    1  UNL1        0.0042
      5 C         139.8567  140.0083  169.1880 C.ar    1  UNL1        0.0208
      6 C         141.0007  140.8176  169.7229 C.ar    1  UNL1        0.1003
      7 N         141.8161  141.6685  168.7949 N.ar    1  UNL1       -0.2294
      8 C         141.4874  141.7101  167.3320 C.ar    1  UNL1        0.1284
      9 C         140.3434  140.9007  166.7970 C.ar    1  UNL1        0.0315
     10 C         140.0146  140.9422  165.3340 C.ar    1  UNL1        0.0059
     11 C         142.5835  137.6348  158.3430 C.3     1  UNL1        0.1124
     12 N         141.2522  138.3260  158.3419 N.pl3   1  UNL1       -0.2987
     13 C         140.5407  138.5812  157.0464 C.3     1  UNL1        0.1387
     14 C         139.2095  139.2724  157.0453 C.3     1  UNL1        0.2269
     15 O         138.5898  139.7085  158.3398 O.3     1  UNL1       -0.4692
     16 C         139.3013  139.4534  159.6354 C.ar    1  UNL1        0.1907
     17 C         140.6326  138.7621  159.6364 C.ar    1  UNL1        0.1067
     18 C         141.3441  138.5070  160.9321 C.ar    1  UNL1        0.1382
     19 N         140.7245  138.9430  162.2266 N.ar    1  UNL1       -0.1593
     20 N         139.3932  139.6343  162.2256 N.ar    1  UNL1       -0.1884
     21 C         138.5419  140.1745  163.3361 C.ar    1  UNL1        0.1866
     22 N         137.3042  140.7634  162.7269 N.ar    1  UNL1       -0.1268
     23 N         137.3906  140.5873  161.2398 N.ar    1  UNL1       -0.1237
     24 C         138.6817  139.8895  160.9300 C.ar    1  UNL1        0.2217
     25 N         142.3027  142.5609  166.4039 N.pl3   1  UNL1       -0.3197
     26 H         142.1354  143.5296  166.3493 H       1  UNL1        0.1481
     27 C         143.3729  141.9359  165.5589 C.3     1  UNL1        0.0704
     28 C         143.4554  140.4431  165.4362 C.3     1  UNL1        0.0195
     29 C         144.5256  139.8181  164.5913 C.3     1  UNL1        0.0017
     30 C         145.5133  140.6858  163.8690 C.3     1  UNL1        0.0001
     31 C         145.4309  142.1785  163.9917 C.3     1  UNL1        0.0017
     32 C         144.3606  142.8035  164.8367 C.3     1  UNL1        0.0195
@<TRIPOS>BOND
     1    11    12    1
     2    12    13    1
     3    13    14    1
     4    14    15    1
     5    15    16    1
     6    16    17   ar
     7    17    18   ar
     8    18    19   ar
     9    19    20   ar
    10    20    21   ar
    11    21     1    1
    12     1     2   ar
    13     2     3   ar
    14     3     4   ar
    15     4     5   ar
    16     5     6   ar
    17     6     7   ar
    18     7     8   ar
    19     8    25    1
    20    25    27    1
    21    27    28    1
    22    28    29    1
    23    29    30    1
    24    30    31    1
    25    31    32    1
    26     8     9   ar
    27     9    10   ar
    28    21    22   ar
    29    22    23   ar
    30    23    24   ar
    31    17    12    1
    32    24    20   ar
    33    24    16   ar
    34    10     1   ar
    35     9     4   ar
    36    32    27    1
    37    25    26    1
@<TRIPOS>MOLECULE
*****
 32 37 0 0 0
SMALL
GASTEIGER

@<TRIPOS>ATOM
      1 C         138.9162  139.3291  164.8850 C.ar    1  UNL1        0.0377
      2 C         138.1015  138.5476  165.8728 C.ar    1  UNL1        0.0031
      3 C         138.1990  138.8576  167.3372 C.ar    1  UNL1        0.0002
      4 C         139.1110  139.9489  167.8138 C.ar    1  UNL1        0.0042
      5 C         139.2083  140.2588  169.2782 C.ar    1  UNL1        0.0208
      6 C         140.1203  141.3501  169.7548 C.ar    1  UNL1        0.1003
      7 N         140.9350  142.1316  168.7670 N.ar    1  UNL1       -0.2294
      8 C         140.8376  141.8218  167.3027 C.ar    1  UNL1        0.1284
      9 C         139.9256  140.7304  166.8260 C.ar    1  UNL1        0.0315
     10 C         139.8281  140.4205  165.3616 C.ar    1  UNL1        0.0059
     11 C         139.6066  143.6707  158.3749 C.3     1  UNL1        0.1124
     12 N         139.3178  142.1988  158.3861 N.pl3   1  UNL1       -0.2987
     13 C         139.1403  141.4595  157.0931 C.3     1  UNL1        0.1387
     14 C         138.8515  139.9876  157.1043 C.3     1  UNL1        0.2269
     15 O         138.7401  139.2551  158.4085 O.3     1  UNL1       -0.4692
     16 C         138.9176  139.9944  159.7015 C.ar    1  UNL1        0.1907
     17 C         139.2064  141.4663  159.6902 C.ar    1  UNL1        0.1067
     18 C         139.3839  142.2056  160.9833 C.ar    1  UNL1        0.1382
     19 N         139.2725  141.4731  162.2875 N.ar    1  UNL1       -0.1593
     20 N         138.9837  140.0012  162.2987 N.ar    1  UNL1       -0.1884
     21 C         138.8188  139.0192  163.4205 C.ar    1  UNL1        0.1866
     22 N         138.5394  137.6730  162.8209 N.ar    1  UNL1       -0.1268
     23 N         138.5316  137.8230  161.3284 N.ar    1  UNL1       -0.1237
     24 C         138.8062  139.2619  161.0057 C.ar    1  UNL1        0.2217
     25 N         141.6522  142.6032  166.3148 N.pl3   1  UNL1       -0.3197
     26 H         142.6348  142.5453  166.3317 H       1  UNL1        0.1481
     27 C         140.9695  143.4730  165.3012 C.3     1  UNL1        0.0704
     28 C         139.5440  143.8908  165.5098 C.3     1  UNL1        0.0195
     29 C         138.8613  144.7605  164.4962 C.3     1  UNL1        0.0017
     30 C         139.6042  145.2125  163.2739 C.3     1  UNL1        0.0001
     31 C         141.0296  144.7948  163.0653 C.3     1  UNL1        0.0017
     32 C         141.7123  143.9251  164.0789 C.3     1  UNL1        0.0195
@<TRIPOS>BOND
     1    11    12    1
     2    12    13    1
     3    13    14    1
     4    14    15    1
     5    15    16    1
     6    16    17   ar
     7    17    18   ar
     8    18    19   ar
     9    19    20   ar
    10    20    21   ar
    11    21     1    1
    12     1     2   ar
    13     2     3   ar
    14     3     4   ar
    15     4     5   ar
    16     5     6   ar
    17     6     7   ar
    18     7     8   ar
    19     8    25    1
    20    25    27    1
    21    27    28    1
    22    28    29    1
    23    29    30    1
    24    30    31    1
    25    31    32    1
    26     8     9   ar
    27     9    10   ar
    28    21    22   ar
    29    22    23   ar
    30    23    24   ar
    31    17    12    1
    32    24    20   ar
    33    24    16   ar
    34    10     1   ar
    35     9     4   ar
    36    32    27    1
    37    25    26    1
@<TRIPOS>MOLECULE
*****
 32 37 0 0 0
SMALL
GASTEIGER

@<TRIPOS>ATOM
      1 C         142.5314  143.3220  161.8303 C.ar    1  UNL1        0.0377
      2 C         143.9235  143.7680  162.1666 C.ar    1  UNL1        0.0031
      3 C         144.8353  142.8617  162.9394 C.ar    1  UNL1        0.0002
      4 C         144.3550  141.5094  163.3760 C.ar    1  UNL1        0.0042
      5 C         145.2668  140.6032  164.1488 C.ar    1  UNL1        0.0208
      6 C         144.7865  139.2509  164.5853 C.ar    1  UNL1        0.1003
      7 N         143.3944  138.8048  164.2490 N.ar    1  UNL1       -0.2294
      8 C         142.4826  139.7111  163.4762 C.ar    1  UNL1        0.1284
      9 C         142.9629  141.0634  163.0397 C.ar    1  UNL1        0.0315
     10 C         142.0511  141.9698  162.2668 C.ar    1  UNL1        0.0059
     11 C         142.1320  145.4390  154.2760 C.3     1  UNL1        0.1124
     12 N         141.1971  145.9249  155.3436 N.pl3   1  UNL1       -0.2987
     13 C         140.0945  146.8808  154.9967 C.3     1  UNL1        0.1387
     14 C         139.1595  147.3667  156.0642 C.3     1  UNL1        0.2269
     15 O         139.3272  146.8968  157.4788 O.3     1  UNL1       -0.4692
     16 C         140.4298  145.9409  157.8257 C.ar    1  UNL1        0.1907
     17 C         141.3648  145.4550  156.7582 C.ar    1  UNL1        0.1067
     18 C         142.4674  144.4990  157.1052 C.ar    1  UNL1        0.1382
     19 N         142.6351  144.0290  158.5197 N.ar    1  UNL1       -0.1593
     20 N         141.7002  144.5150  159.5873 N.ar    1  UNL1       -0.1884
     21 C         141.6196  144.2283  161.0575 C.ar    1  UNL1        0.1866
     22 N         140.4672  145.0071  161.6191 N.ar    1  UNL1       -0.1268
     23 N         139.8355  145.7750  160.4960 N.ar    1  UNL1       -0.1237
     24 C         140.5975  145.4709  159.2403 C.ar    1  UNL1        0.2217
     25 N         141.0904  139.2651  163.1398 N.pl3   1  UNL1       -0.3197
     26 H         140.8359  139.1116  162.2013 H       1  UNL1        0.1481
     27 C         140.0860  139.0531  164.2336 C.3     1  UNL1        0.0704
     28 C         139.6642  140.2043  165.0979 C.3     1  UNL1        0.0195
     29 C         138.6598  139.9923  166.1917 C.3     1  UNL1        0.0017
     30 C         138.0772  138.6292  166.4210 C.3     1  UNL1        0.0001
     31 C         138.4990  137.4781  165.5567 C.3     1  UNL1        0.0017
     32 C         139.5034  137.6901  164.4630 C.3     1  UNL1        0.0195
@<TRIPOS>BOND
     1    11    12    1
     2    12    13    1
     3    13    14    1
     4    14    15    1
     5    15    16    1
     6    16    17   ar
     7    17    18   ar
     8    18    19   ar
     9    19    20   ar
    10    20    21   ar
    11    21     1    1
    12     1     2   ar
    13     2     3   ar
    14     3     4   ar
    15     4     5   ar
    16     5     6   ar
    17     6     7   ar
    18     7     8   ar
    19     8    25    1
    20    25    27    1
    21    27    28    1
    22    28    29    1
    23    29    30    1
    24    30    31    1
    25    31    32    1
    26     8     9   ar
    27     9    10   ar
    28    21    22   ar
    29    22    23   ar
    30    23    24   ar
    31    17    12    1
    32    24    20   ar
    33    24    16   ar
    34    10     1   ar
    35     9     4   ar
    36    32    27    1
    37    25    26    1
@<TRIPOS>MOLECULE
*****
 32 37 0 0 0
SMALL
GASTEIGER

@<TRIPOS>ATOM
      1 C         141.3974  143.9665  163.4304 C.ar    1  UNL1        0.0377
      2 C         142.7849  144.2467  163.9268 C.ar    1  UNL1        0.0031
      3 C         143.3184  143.5084  165.1185 C.ar    1  UNL1        0.0002
      4 C         142.4645  142.4899  165.8138 C.ar    1  UNL1        0.0042
      5 C         142.9981  141.7516  167.0056 C.ar    1  UNL1        0.0208
      6 C         142.1442  140.7330  167.7009 C.ar    1  UNL1        0.1003
      7 N         140.7567  140.4528  167.2044 N.ar    1  UNL1       -0.2294
      8 C         140.2231  141.1911  166.0127 C.ar    1  UNL1        0.1284
      9 C         141.0770  142.2096  165.3174 C.ar    1  UNL1        0.0315
     10 C         140.5435  142.9480  164.1257 C.ar    1  UNL1        0.0059
     11 C         143.0072  143.7248  155.7455 C.3     1  UNL1        0.1124
     12 N         141.9849  144.6275  156.3699 N.pl3   1  UNL1       -0.2987
     13 C         141.1895  145.5664  155.5121 C.3     1  UNL1        0.1387
     14 C         140.1671  146.4691  156.1365 C.3     1  UNL1        0.2269
     15 O         139.9402  146.4329  157.6188 O.3     1  UNL1       -0.4692
     16 C         140.7356  145.4941  158.4766 C.ar    1  UNL1        0.1907
     17 C         141.7579  144.5914  157.8522 C.ar    1  UNL1        0.1067
     18 C         142.5533  143.6525  158.7101 C.ar    1  UNL1        0.1382
     19 N         142.3263  143.6164  160.1923 N.ar    1  UNL1       -0.1593
     20 N         141.3040  144.5191  160.8168 N.ar    1  UNL1       -0.1884
     21 C         140.8638  144.7048  162.2386 C.ar    1  UNL1        0.1866
     22 N         139.7964  145.7584  162.2596 N.ar    1  UNL1       -0.1268
     23 N         139.5768  146.2239  160.8506 N.ar    1  UNL1       -0.1237
     24 C         140.5086  145.4579  159.9590 C.ar    1  UNL1        0.2217
     25 N         138.8357  140.9109  165.5162 N.pl3   1  UNL1       -0.3197
     26 H         138.0621  141.3394  165.9489 H       1  UNL1        0.1481
     27 C         138.6269  139.9777  164.3606 C.3     1  UNL1        0.0704
     28 C         139.1084  138.5595  164.4452 C.3     1  UNL1        0.0195
     29 C         138.8996  137.6264  163.2895 C.3     1  UNL1        0.0017
     30 C         138.2093  138.1114  162.0492 C.3     1  UNL1        0.0001
     31 C         137.7279  139.5295  161.9646 C.3     1  UNL1        0.0017
     32 C         137.9366  140.4626  163.1202 C.3     1  UNL1        0.0195
@<TRIPOS>BOND
     1    11    12    1
     2    12    13    1
     3    13    14    1
     4    14    15    1
     5    15    16    1
     6    16    17   ar
     7    17    18   ar
     8    18    19   ar
     9    19    20   ar
    10    20    21   ar
    11    21     1    1
    12     1     2   ar
    13     2     3   ar
    14     3     4   ar
    15     4     5   ar
    16     5     6   ar
    17     6     7   ar
    18     7     8   ar
    19     8    25    1
    20    25    27    1
    21    27    28    1
    22    28    29    1
    23    29    30    1
    24    30    31    1
    25    31    32    1
    26     8     9   ar
    27     9    10   ar
    28    21    22   ar
    29    22    23   ar
    30    23    24   ar
    31    17    12    1
    32    24    20   ar
    33    24    16   ar
    34    10     1   ar
    35     9     4   ar
    36    32    27    1
    37    25    26    1
@<TRIPOS>MOLECULE
*****
 32 37 0 0 0
SMALL
GASTEIGER

@<TRIPOS>ATOM
      1 C         142.9198  139.2251  164.1605 C.ar    1  UNL1        0.0377
      2 C         143.9337  138.8959  165.2159 C.ar    1  UNL1        0.0031
      3 C         143.5706  139.0114  166.6666 C.ar    1  UNL1        0.0002
      4 C         142.1937  139.4560  167.0621 C.ar    1  UNL1        0.0042
      5 C         141.8306  139.5715  168.5129 C.ar    1  UNL1        0.0208
      6 C         140.4537  140.0162  168.9083 C.ar    1  UNL1        0.1003
      7 N         139.4399  140.3454  167.8530 N.ar    1  UNL1       -0.2294
      8 C         139.8029  140.2299  166.4022 C.ar    1  UNL1        0.1284
      9 C         141.1798  139.7852  166.0067 C.ar    1  UNL1        0.0315
     10 C         141.5430  139.6697  164.5559 C.ar    1  UNL1        0.0059
     11 C         142.6582  144.2164  158.1002 C.3     1  UNL1        0.1124
     12 N         143.1389  142.7983  158.0110 N.pl3   1  UNL1       -0.2987
     13 C         143.6122  142.2480  156.6983 C.3     1  UNL1        0.1387
     14 C         144.0929  140.8300  156.6090 C.3     1  UNL1        0.2269
     15 O         144.1004  139.9621  157.8324 O.3     1  UNL1       -0.4692
     16 C         143.6271  140.5124  159.1451 C.ar    1  UNL1        0.1907
     17 C         143.1464  141.9304  159.2344 C.ar    1  UNL1        0.1067
     18 C         142.6730  142.4807  160.5471 C.ar    1  UNL1        0.1382
     19 N         142.6804  141.6128  161.7705 N.ar    1  UNL1       -0.1593
     20 N         143.1612  140.1947  161.6812 N.ar    1  UNL1       -0.1884
     21 C         143.2829  139.1096  162.7096 C.ar    1  UNL1        0.1866
     22 N         143.8315  137.8887  162.0325 N.ar    1  UNL1       -0.1268
     23 N         144.0487  138.2193  160.5856 N.ar    1  UNL1       -0.1237
     24 C         143.6344  139.6445  160.3686 C.ar    1  UNL1        0.2217
     25 N         138.7891  140.5591  165.3468 N.pl3   1  UNL1       -0.3197
     26 H         138.1742  139.8629  165.0206 H       1  UNL1        0.1481
     27 C         138.7122  141.9492  164.7884 C.3     1  UNL1        0.0704
     28 C         137.8016  142.2442  163.6334 C.3     1  UNL1        0.0195
     29 C         137.7247  143.6342  163.0750 C.3     1  UNL1        0.0017
     30 C         138.5584  144.7293  163.6716 C.3     1  UNL1        0.0001
     31 C         139.4689  144.4343  164.8265 C.3     1  UNL1        0.0017
     32 C         139.5458  143.0443  165.3849 C.3     1  UNL1        0.0195
@<TRIPOS>BOND
     1    11    12    1
     2    12    13    1
     3    13    14    1
     4    14    15    1
     5    15    16    1
     6    16    17   ar
     7    17    18   ar
     8    18    19   ar
     9    19    20   ar
    10    20    21   ar
    11    21     1    1
    12     1     2   ar
    13     2     3   ar
    14     3     4   ar
    15     4     5   ar
    16     5     6   ar
    17     6     7   ar
    18     7     8   ar
    19     8    25    1
    20    25    27    1
    21    27    28    1
    22    28    29    1
    23    29    30    1
    24    30    31    1
    25    31    32    1
    26     8     9   ar
    27     9    10   ar
    28    21    22   ar
    29    22    23   ar
    30    23    24   ar
    31    17    12    1
    32    24    20   ar
    33    24    16   ar
    34    10     1   ar
    35     9     4   ar
    36    32    27    1
    37    25    26    1
@<TRIPOS>MOLECULE
*****
 32 37 0 0 0
SMALL
GASTEIGER

@<TRIPOS>ATOM
      1 C         142.6116  137.8881  157.3421 C.ar    1  UNL1        0.0377
      2 C         143.1454  139.1194  156.6720 C.ar    1  UNL1        0.0031
      3 C         143.6894  140.2468  157.4983 C.ar    1  UNL1        0.0002
      4 C         143.6997  140.1430  158.9947 C.ar    1  UNL1        0.0042
      5 C         144.2437  141.2705  159.8210 C.ar    1  UNL1        0.0208
      6 C         144.2540  141.1668  161.3173 C.ar    1  UNL1        0.1003
      7 N         143.7202  139.9355  161.9874 N.ar    1  UNL1       -0.2294
      8 C         143.1762  138.8080  161.1612 C.ar    1  UNL1        0.1284
      9 C         143.1659  138.9118  159.6648 C.ar    1  UNL1        0.0315
     10 C         142.6218  137.7843  158.8384 C.ar    1  UNL1        0.0059
     11 C         143.8734  130.1351  157.2624 C.3     1  UNL1        0.1124
     12 N         142.9288  130.8502  156.3424 N.pl3   1  UNL1       -0.2987
     13 C         142.1487  130.0778  155.3202 C.3     1  UNL1        0.1387
     14 C         141.2042  130.7929  154.4002 C.3     1  UNL1        0.2269
     15 O         141.0397  132.2803  154.5023 O.3     1  UNL1       -0.4692
     16 C         141.8198  133.0527  155.5245 C.ar    1  UNL1        0.1907
     17 C         142.7643  132.3376  156.4446 C.ar    1  UNL1        0.1067
     18 C         143.5444  133.1100  157.4668 C.ar    1  UNL1        0.1382
     19 N         143.3800  134.5974  157.5690 N.ar    1  UNL1       -0.1593
     20 N         142.4354  135.3125  156.6490 N.ar    1  UNL1       -0.1884
     21 C         142.0675  136.7605  156.5158 C.ar    1  UNL1        0.1866
     22 N         141.0600  136.8831  155.4113 N.ar    1  UNL1       -0.1268
     23 N         140.8053  135.5108  154.8618 N.ar    1  UNL1       -0.1237
     24 C         141.6553  134.5402  155.6268 C.ar    1  UNL1        0.2217
     25 N         142.6423  137.5766  161.8312 N.pl3   1  UNL1       -0.3197
     26 H         143.1269  136.7234  161.7512 H       1  UNL1        0.1481
     27 C         141.3703  137.6454  162.6230 C.3     1  UNL1        0.0704
     28 C         140.0654  137.8942  161.9260 C.3     1  UNL1        0.0195
     29 C         138.7933  137.9630  162.7179 C.3     1  UNL1        0.0017
     30 C         138.8261  137.7830  164.2067 C.3     1  UNL1        0.0001
     31 C         140.1308  137.5342  164.9037 C.3     1  UNL1        0.0017
     32 C         141.4029  137.4655  164.1119 C.3     1  UNL1        0.0195
@<TRIPOS>BOND
     1    11    12    1
     2    12    13    1
     3    13    14    1
     4    14    15    1
     5    15    16    1
     6    16    17   ar
     7    17    18   ar
     8    18    19   ar
     9    19    20   ar
    10    20    21   ar
    11    21     1    1
    12     1     2   ar
    13     2     3   ar
    14     3     4   ar
    15     4     5   ar
    16     5     6   ar
    17     6     7   ar
    18     7     8   ar
    19     8    25    1
    20    25    27    1
    21    27    28    1
    22    28    29    1
    23    29    30    1
    24    30    31    1
    25    31    32    1
    26     8     9   ar
    27     9    10   ar
    28    21    22   ar
    29    22    23   ar
    30    23    24   ar
    31    17    12    1
    32    24    20   ar
    33    24    16   ar
    34    10     1   ar
    35     9     4   ar
    36    32    27    1
    37    25    26    1
