@<TRIPOS>MOLECULE
*****
 31 34 0 0 0
SMALL
GASTEIGER

@<TRIPOS>ATOM
      1 C         139.8961  138.6252  158.8380 C.ar    1  UNL1        0.0826
      2 C         138.8425  139.6872  158.7283 C.ar    1  UNL1        0.0193
      3 C         138.2407  140.2775  159.9690 C.ar    1  UNL1        0.0073
      4 C         138.6925  139.8060  161.3193 C.ar    1  UNL1        0.0691
      5 C         139.7462  138.7440  161.4290 C.ar    1  UNL1        0.0816
      6 N         140.3480  138.1537  160.1884 N.ar    1  UNL1       -0.2478
      7 C         139.9894  138.4811  162.8856 C.3     1  UNL1        0.1203
      8 C         140.9648  137.4924  163.4522 C.3     1  UNL1        0.0284
      9 N         139.0861  139.3806  163.6762 N.am    1  UNL1       -0.2485
     10 C         138.2845  140.1994  162.7082 C.2     1  UNL1        0.2542
     11 O         137.2557  141.2306  163.0661 O.2     1  UNL1       -0.2695
     12 C         142.5901  137.4074  156.1904 C.ar    1  UNL1        0.1916
     13 C         141.9883  137.9979  157.4311 C.ar    1  UNL1        0.0448
     14 C         140.4980  138.0348  157.5973 C.ar    1  UNL1        0.0400
     15 C         139.6095  137.4814  156.5230 C.ar    1  UNL1        0.1037
     16 N         140.2113  136.8910  155.2823 N.ar    1  UNL1       -0.2075
     17 C         141.7016  136.8540  155.1160 C.ar    1  UNL1        0.2601
     18 C         144.7687  138.4141  155.1952 C.3     1  UNL1        0.2527
     19 O         144.0804  137.3705  156.0241 O.3     1  UNL1       -0.4667
     20 O         142.3034  136.2636  153.8754 O.3     1  UNL1       -0.4541
     21 C         142.2861  134.7782  153.6670 C.3     1  UNL1        0.2543
     22 C         138.9995  139.4492  165.1722 C.ar    1  UNL1        0.0942
     23 C         138.1167  138.6059  166.0438 C.ar    1  UNL1        0.1365
     24 N         138.3522  139.0087  167.4695 N.ar    1  UNL1       -0.1660
     25 N         139.3804  140.1008  167.4789 N.ar    1  UNL1       -0.2393
     26 C         139.7805  140.3730  166.0590 C.ar    1  UNL1        0.1118
     27 C         139.9148  140.7982  168.6946 C.3     1  UNL1        0.2302
     28 C         139.7595  140.1706  170.0481 C.3     1  UNL1        0.4200
     29 F         139.6043  139.5430  171.4017 F       1  UNL1       -0.1679
     30 F         141.0481  139.4284  169.8518 F       1  UNL1       -0.1679
     31 F         138.4710  140.9128  170.2445 F       1  UNL1       -0.1679
@<TRIPOS>BOND
     1    18    19    1
     2    19    12    1
     3    12    13   ar
     4    13    14   ar
     5    14     1    1
     6     1     2   ar
     7     2     3   ar
     8     3     4   ar
     9     4     5   ar
    10     5     6   ar
    11     5     7    1
    12     7     8    1
    13     7     9    1
    14     9    22    1
    15    22    23   ar
    16    23    24   ar
    17    24    25   ar
    18    25    27    1
    19    27    28    1
    20    28    29    1
    21    28    30    1
    22    28    31    1
    23    25    26   ar
    24     9    10   am
    25    10    11    2
    26    14    15   ar
    27    15    16   ar
    28    16    17   ar
    29    17    20    1
    30    20    21    1
    31    17    12   ar
    32     6     1   ar
    33    26    22   ar
    34    10     4    1
@<TRIPOS>MOLECULE
*****
 31 34 0 0 0
SMALL
GASTEIGER

@<TRIPOS>ATOM
      1 C         139.3880  139.3384  163.8054 C.ar    1  UNL1        0.0826
      2 C         138.1709  139.4681  162.9384 C.ar    1  UNL1        0.0193
      3 C         138.2846  139.2856  161.4540 C.ar    1  UNL1        0.0073
      4 C         139.6154  138.9734  160.8364 C.ar    1  UNL1        0.0691
      5 C         140.8326  138.8437  161.7034 C.ar    1  UNL1        0.0816
      6 N         140.7189  139.0263  163.1878 N.ar    1  UNL1       -0.2478
      7 C         142.0019  138.5320  160.8171 C.3     1  UNL1        0.1203
      8 C         143.4172  138.3205  161.2666 C.3     1  UNL1        0.0284
      9 N         141.5074  138.4691  159.4023 N.am    1  UNL1       -0.2485
     10 C         140.0325  138.7418  159.4142 C.2     1  UNL1        0.2542
     11 O         139.1326  138.7769  158.2147 O.2     1  UNL1       -0.2695
     12 C         139.9383  140.7886  167.4584 C.ar    1  UNL1        0.1916
     13 C         140.0520  140.6061  165.9739 C.ar    1  UNL1        0.0448
     14 C         139.2744  139.5210  165.2899 C.ar    1  UNL1        0.0400
     15 C         138.3831  138.6183  166.0905 C.ar    1  UNL1        0.1037
     16 N         138.2694  138.8008  167.5750 N.ar    1  UNL1       -0.2075
     17 C         139.0470  139.8860  168.2590 C.ar    1  UNL1        0.2601
     18 C         142.2146  141.8758  168.0800 C.3     1  UNL1        0.2527
     19 O         140.7159  141.8737  168.1424 O.3     1  UNL1       -0.4667
     20 O         138.9334  140.0685  169.7435 O.3     1  UNL1       -0.4541
     21 C         140.1419  139.8961  170.6150 C.3     1  UNL1        0.2543
     22 C         142.3415  138.1834  158.1887 C.ar    1  UNL1        0.0942
     23 C         143.0213  139.2049  157.3257 C.ar    1  UNL1        0.1365
     24 N         143.7421  138.4789  156.2287 N.ar    1  UNL1       -0.1660
     25 N         143.5077  137.0089  156.4136 N.ar    1  UNL1       -0.2393
     26 C         142.6421  136.8263  157.6251 C.ar    1  UNL1        0.1118
     27 C         144.0447  135.9138  155.5405 C.3     1  UNL1        0.2302
     28 C         143.3272  134.5990  155.4598 C.3     1  UNL1        0.4200
     29 F         142.6096  133.2842  155.3792 F       1  UNL1       -0.1679
     30 F         144.1938  134.0586  156.5584 F       1  UNL1       -0.1679
     31 F         142.4605  135.1394  154.3613 F       1  UNL1       -0.1679
@<TRIPOS>BOND
     1    18    19    1
     2    19    12    1
     3    12    13   ar
     4    13    14   ar
     5    14     1    1
     6     1     2   ar
     7     2     3   ar
     8     3     4   ar
     9     4     5   ar
    10     5     6   ar
    11     5     7    1
    12     7     8    1
    13     7     9    1
    14     9    22    1
    15    22    23   ar
    16    23    24   ar
    17    24    25   ar
    18    25    27    1
    19    27    28    1
    20    28    29    1
    21    28    30    1
    22    28    31    1
    23    25    26   ar
    24     9    10   am
    25    10    11    2
    26    14    15   ar
    27    15    16   ar
    28    16    17   ar
    29    17    20    1
    30    20    21    1
    31    17    12   ar
    32     6     1   ar
    33    26    22   ar
    34    10     4    1
@<TRIPOS>MOLECULE
*****
 31 34 0 0 0
SMALL
GASTEIGER

@<TRIPOS>ATOM
      1 C         140.3150  142.9754  164.9826 C.ar    1  UNL1        0.0826
      2 C         139.5119  144.2349  165.1192 C.ar    1  UNL1        0.0193
      3 C         139.2988  145.1214  163.9282 C.ar    1  UNL1        0.0073
      4 C         139.8888  144.7484  162.6005 C.ar    1  UNL1        0.0691
      5 C         140.6919  143.4889  162.4638 C.ar    1  UNL1        0.0816
      6 N         140.9050  142.6024  163.6549 N.ar    1  UNL1       -0.2478
      7 C         141.1470  143.3817  161.0386 C.3     1  UNL1        0.1203
      8 C         141.9780  142.2755  160.4593 C.3     1  UNL1        0.0284
      9 N         140.6252  144.5750  160.2943 N.am    1  UNL1       -0.2485
     10 C         139.8476  145.4197  161.2596 C.2     1  UNL1        0.2542
     11 O         139.1510  146.7092  160.9402 O.2     1  UNL1       -0.2695
     12 C         139.7114  140.1741  167.7283 C.ar    1  UNL1        0.1916
     13 C         139.4983  141.0607  166.5372 C.ar    1  UNL1        0.0448
     14 C         140.5281  142.0888  166.1737 C.ar    1  UNL1        0.0400
     15 C         141.7711  142.2305  167.0012 C.ar    1  UNL1        0.1037
     16 N         141.9843  141.3440  168.1923 N.ar    1  UNL1       -0.2075
     17 C         140.9544  140.3158  168.5558 C.ar    1  UNL1        0.2601
     18 C         137.7224  138.6451  167.0529 C.3     1  UNL1        0.2527
     19 O         138.6815  139.1459  168.0918 O.3     1  UNL1       -0.4667
     20 O         141.1676  139.4293  169.7469 O.3     1  UNL1       -0.4541
     21 C         142.5192  138.8324  170.0052 C.3     1  UNL1        0.2543
     22 C         140.8428  144.8715  158.8401 C.ar    1  UNL1        0.0942
     23 C         142.0099  145.6110  158.2561 C.ar    1  UNL1        0.1365
     24 N         141.8199  145.6770  156.7696 N.ar    1  UNL1       -0.1660
     25 N         140.5355  144.9784  156.4350 N.ar    1  UNL1       -0.2393
     26 C         139.9316  144.4805  157.7147 C.ar    1  UNL1        0.1118
     27 C         139.9565  144.8075  155.0618 C.3     1  UNL1        0.2302
     28 C         138.5176  145.1462  154.8071 C.3     1  UNL1        0.4200
     29 F         137.0786  145.4849  154.5524 F       1  UNL1       -0.1679
     30 F         138.8607  146.6064  154.8106 F       1  UNL1       -0.1679
     31 F         138.1745  143.6860  154.8036 F       1  UNL1       -0.1679
@<TRIPOS>BOND
     1    18    19    1
     2    19    12    1
     3    12    13   ar
     4    13    14   ar
     5    14     1    1
     6     1     2   ar
     7     2     3   ar
     8     3     4   ar
     9     4     5   ar
    10     5     6   ar
    11     5     7    1
    12     7     8    1
    13     7     9    1
    14     9    22    1
    15    22    23   ar
    16    23    24   ar
    17    24    25   ar
    18    25    27    1
    19    27    28    1
    20    28    29    1
    21    28    30    1
    22    28    31    1
    23    25    26   ar
    24     9    10   am
    25    10    11    2
    26    14    15   ar
    27    15    16   ar
    28    16    17   ar
    29    17    20    1
    30    20    21    1
    31    17    12   ar
    32     6     1   ar
    33    26    22   ar
    34    10     4    1
@<TRIPOS>MOLECULE
*****
 31 34 0 0 0
SMALL
GASTEIGER

@<TRIPOS>ATOM
      1 C         140.7822  138.4430  161.0706 C.ar    1  UNL1        0.0826
      2 C         139.4175  138.0016  161.5094 C.ar    1  UNL1        0.0193
      3 C         139.0179  138.1209  162.9503 C.ar    1  UNL1        0.0073
      4 C         139.9831  138.6816  163.9523 C.ar    1  UNL1        0.0691
      5 C         141.3479  139.1229  163.5135 C.ar    1  UNL1        0.0816
      6 N         141.7474  139.0036  162.0727 N.ar    1  UNL1       -0.2478
      7 C         142.0802  139.6326  164.7193 C.3     1  UNL1        0.1203
      8 C         143.4791  140.1736  164.7378 C.3     1  UNL1        0.0284
      9 N         141.1680  139.5063  165.9033 N.am    1  UNL1       -0.2485
     10 C         139.8719  138.9185  165.4294 C.2     1  UNL1        0.2542
     11 O         138.6748  138.6200  166.2825 O.2     1  UNL1       -0.2695
     12 C         140.5380  138.2696  157.1132 C.ar    1  UNL1        0.1916
     13 C         140.1384  138.3888  158.5541 C.ar    1  UNL1        0.0448
     14 C         141.1818  138.3237  159.6297 C.ar    1  UNL1        0.0400
     15 C         142.6250  138.1393  159.2644 C.ar    1  UNL1        0.1037
     16 N         143.0246  138.0201  157.8236 N.ar    1  UNL1       -0.2075
     17 C         141.9811  138.0852  156.7480 C.ar    1  UNL1        0.2601
     18 C         138.9998  137.0727  155.3953 C.3     1  UNL1        0.2527
     19 O         139.4945  138.3347  156.0377 O.3     1  UNL1       -0.4667
     20 O         142.3807  137.9659  155.3071 O.3     1  UNL1       -0.4541
     21 C         143.5523  138.7448  154.7868 C.3     1  UNL1        0.2543
     22 C         141.4946  139.8988  167.3138 C.ar    1  UNL1        0.0942
     23 C         142.5883  139.3176  168.1599 C.ar    1  UNL1        0.1365
     24 N         142.5544  140.0012  169.4948 N.ar    1  UNL1       -0.1660
     25 N         141.4398  141.0047  169.4735 N.ar    1  UNL1       -0.2393
     26 C         140.7848  140.9414  168.1255 C.ar    1  UNL1        0.1118
     27 C         141.0488  141.9121  170.6021 C.3     1  UNL1        0.2302
     28 C         140.6221  143.3217  170.3176 C.3     1  UNL1        0.4200
     29 F         140.1953  144.7314  170.0331 F       1  UNL1       -0.1679
     30 F         139.2087  142.9653  170.6716 F       1  UNL1       -0.1679
     31 F         142.0354  143.6782  169.9636 F       1  UNL1       -0.1679
@<TRIPOS>BOND
     1    18    19    1
     2    19    12    1
     3    12    13   ar
     4    13    14   ar
     5    14     1    1
     6     1     2   ar
     7     2     3   ar
     8     3     4   ar
     9     4     5   ar
    10     5     6   ar
    11     5     7    1
    12     7     8    1
    13     7     9    1
    14     9    22    1
    15    22    23   ar
    16    23    24   ar
    17    24    25   ar
    18    25    27    1
    19    27    28    1
    20    28    29    1
    21    28    30    1
    22    28    31    1
    23    25    26   ar
    24     9    10   am
    25    10    11    2
    26    14    15   ar
    27    15    16   ar
    28    16    17   ar
    29    17    20    1
    30    20    21    1
    31    17    12   ar
    32     6     1   ar
    33    26    22   ar
    34    10     4    1
@<TRIPOS>MOLECULE
*****
 31 34 0 0 0
SMALL
GASTEIGER

@<TRIPOS>ATOM
      1 C         138.3497  140.6785  159.1717 C.ar    1  UNL1        0.0826
      2 C         139.0947  139.3808  159.0674 C.ar    1  UNL1        0.0193
      3 C         139.4855  138.6383  160.3107 C.ar    1  UNL1        0.0073
      4 C         139.1313  139.1935  161.6584 C.ar    1  UNL1        0.0691
      5 C         138.3863  140.4912  161.7628 C.ar    1  UNL1        0.0816
      6 N         137.9955  141.2337  160.5194 N.ar    1  UNL1       -0.2478
      7 C         138.1762  140.7893  163.2177 C.3     1  UNL1        0.1203
      8 C         137.4742  141.9901  163.7792 C.3     1  UNL1        0.0284
      9 N         138.7914  139.6758  164.0126 N.am    1  UNL1       -0.2485
     10 C         139.3816  138.6895  163.0489 C.2     1  UNL1        0.2542
     11 O         140.0967  137.4219  163.4119 O.2     1  UNL1       -0.2695
     12 C         136.3510  141.7466  155.9137 C.ar    1  UNL1        0.1916
     13 C         136.7418  141.0041  157.1571 C.ar    1  UNL1        0.0448
     14 C         137.9588  141.4210  157.9283 C.ar    1  UNL1        0.0400
     15 C         138.7851  142.5805  157.4563 C.ar    1  UNL1        0.1037
     16 N         138.3943  143.3231  156.2130 N.ar    1  UNL1       -0.2075
     17 C         137.1772  142.9062  155.4417 C.ar    1  UNL1        0.2601
     18 C         134.8006  139.8745  154.9965 C.3     1  UNL1        0.2527
     19 O         135.1339  141.3297  155.1424 O.3     1  UNL1       -0.4667
     20 O         136.7865  143.6487  154.1984 O.3     1  UNL1       -0.4541
     21 C         137.3879  143.2690  152.8777 C.3     1  UNL1        0.2543
     22 C         138.8125  139.5677  165.5086 C.ar    1  UNL1        0.0942
     23 C         137.8548  138.7760  166.3490 C.ar    1  UNL1        0.1365
     24 N         138.2456  138.9514  167.7866 N.ar    1  UNL1       -0.1660
     25 N         139.4446  139.8513  167.8346 N.ar    1  UNL1       -0.2393
     26 C         139.7950  140.2322  166.4267 C.ar    1  UNL1        0.1118
     27 C         140.1665  140.2928  169.0731 C.3     1  UNL1        0.2302
     28 C         139.7629  141.5614  169.7645 C.3     1  UNL1        0.4200
     29 F         139.3593  142.8300  170.4559 F       1  UNL1       -0.1679
     30 F         140.9849  142.2440  169.2253 F       1  UNL1       -0.1679
     31 F         138.5409  140.8788  170.3037 F       1  UNL1       -0.1679
@<TRIPOS>BOND
     1    18    19    1
     2    19    12    1
     3    12    13   ar
     4    13    14   ar
     5    14     1    1
     6     1     2   ar
     7     2     3   ar
     8     3     4   ar
     9     4     5   ar
    10     5     6   ar
    11     5     7    1
    12     7     8    1
    13     7     9    1
    14     9    22    1
    15    22    23   ar
    16    23    24   ar
    17    24    25   ar
    18    25    27    1
    19    27    28    1
    20    28    29    1
    21    28    30    1
    22    28    31    1
    23    25    26   ar
    24     9    10   am
    25    10    11    2
    26    14    15   ar
    27    15    16   ar
    28    16    17   ar
    29    17    20    1
    30    20    21    1
    31    17    12   ar
    32     6     1   ar
    33    26    22   ar
    34    10     4    1
@<TRIPOS>MOLECULE
*****
 31 34 0 0 0
SMALL
GASTEIGER

@<TRIPOS>ATOM
      1 C         142.7851  137.1432  157.1585 C.ar    1  UNL1        0.0826
      2 C         142.8581  138.2653  156.1659 C.ar    1  UNL1        0.0193
      3 C         143.1030  139.6683  156.6368 C.ar    1  UNL1        0.0073
      4 C         143.2748  139.9490  158.1002 C.ar    1  UNL1        0.0691
      5 C         143.2017  138.8269  159.0928 C.ar    1  UNL1        0.0816
      6 N         142.9568  137.4239  158.6220 N.ar    1  UNL1       -0.2478
      7 C         143.4079  139.4046  160.4616 C.3     1  UNL1        0.1203
      8 C         143.4127  138.6377  161.7507 C.3     1  UNL1        0.0284
      9 N         143.6084  140.8839  160.3150 N.am    1  UNL1       -0.2485
     10 C         143.5262  141.2204  158.8555 C.2     1  UNL1        0.2542
     11 O         143.6700  142.5881  158.2566 O.2     1  UNL1       -0.2695
     12 C         143.0685  133.1995  156.8152 C.ar    1  UNL1        0.1916
     13 C         143.3133  134.6025  157.2860 C.ar    1  UNL1        0.0448
     14 C         142.5402  135.7401  156.6877 C.ar    1  UNL1        0.0400
     15 C         141.5221  135.4748  155.6185 C.ar    1  UNL1        0.1037
     16 N         141.2772  134.0718  155.1477 N.ar    1  UNL1       -0.2075
     17 C         142.0504  132.9341  155.7461 C.ar    1  UNL1        0.2601
     18 C         145.2164  132.2976  157.9655 C.3     1  UNL1        0.2527
     19 O         143.8416  132.0619  157.4136 O.3     1  UNL1       -0.4667
     20 O         141.8055  131.5312  155.2752 O.3     1  UNL1       -0.4541
     21 C         140.4671  131.1510  154.7148 C.3     1  UNL1        0.2543
     22 C         143.8490  141.8561  161.4318 C.ar    1  UNL1        0.0942
     23 C         145.0781  141.9279  162.2887 C.ar    1  UNL1        0.1365
     24 N         144.8913  143.0432  163.2742 N.ar    1  UNL1       -0.1660
     25 N         143.5470  143.6606  163.0264 N.ar    1  UNL1       -0.2393
     26 C         142.9028  142.9268  161.8876 C.ar    1  UNL1        0.1118
     27 C         142.9514  144.8100  163.7841 C.3     1  UNL1        0.2302
     28 C         141.4741  144.8540  164.0407 C.3     1  UNL1        0.4200
     29 F         139.9968  144.8981  164.2974 F       1  UNL1       -0.1679
     30 F         141.6071  143.7107  165.0025 F       1  UNL1       -0.1679
     31 F         141.3411  145.9974  163.0790 F       1  UNL1       -0.1679
@<TRIPOS>BOND
     1    18    19    1
     2    19    12    1
     3    12    13   ar
     4    13    14   ar
     5    14     1    1
     6     1     2   ar
     7     2     3   ar
     8     3     4   ar
     9     4     5   ar
    10     5     6   ar
    11     5     7    1
    12     7     8    1
    13     7     9    1
    14     9    22    1
    15    22    23   ar
    16    23    24   ar
    17    24    25   ar
    18    25    27    1
    19    27    28    1
    20    28    29    1
    21    28    30    1
    22    28    31    1
    23    25    26   ar
    24     9    10   am
    25    10    11    2
    26    14    15   ar
    27    15    16   ar
    28    16    17   ar
    29    17    20    1
    30    20    21    1
    31    17    12   ar
    32     6     1   ar
    33    26    22   ar
    34    10     4    1
@<TRIPOS>MOLECULE
*****
 31 34 0 0 0
SMALL
GASTEIGER

@<TRIPOS>ATOM
      1 C         139.7862  139.5138  163.4970 C.ar    1  UNL1        0.0826
      2 C         138.5393  139.5922  162.6670 C.ar    1  UNL1        0.0193
      3 C         138.5977  139.3020  161.1966 C.ar    1  UNL1        0.0073
      4 C         139.9030  138.9333  160.5561 C.ar    1  UNL1        0.0691
      5 C         141.1499  138.8549  161.3861 C.ar    1  UNL1        0.0816
      6 N         141.0916  139.1451  162.8566 N.ar    1  UNL1       -0.2478
      7 C         142.2840  138.4688  160.4835 C.3     1  UNL1        0.1203
      8 C         143.7133  138.2767  160.8963 C.3     1  UNL1        0.0284
      9 N         141.7380  138.3087  159.0956 N.am    1  UNL1       -0.2485
     10 C         140.2664  138.5957  159.1404 C.2     1  UNL1        0.2542
     11 O         139.3238  138.5528  157.9744 O.2     1  UNL1       -0.2695
     12 C         138.6534  139.4042  167.2991 C.ar    1  UNL1        0.1916
     13 C         138.7118  139.1139  165.8285 C.ar    1  UNL1        0.0448
     14 C         139.7279  139.8040  164.9676 C.ar    1  UNL1        0.0400
     15 C         140.6857  140.7844  165.5771 C.ar    1  UNL1        0.1037
     16 N         140.6274  141.0747  167.0476 N.ar    1  UNL1       -0.2075
     17 C         139.6112  140.3845  167.9086 C.ar    1  UNL1        0.2601
     18 C         136.8350  137.5742  167.6060 C.3     1  UNL1        0.2527
     19 O         137.6374  138.7140  168.1600 O.3     1  UNL1       -0.4667
     20 O         139.5529  140.6748  169.3791 O.3     1  UNL1       -0.4541
     21 C         140.4932  139.9798  170.3186 C.3     1  UNL1        0.2543
     22 C         142.5254  137.9283  157.8768 C.ar    1  UNL1        0.0942
     23 C         143.2802  138.8695  156.9855 C.ar    1  UNL1        0.1365
     24 N         143.9175  138.0627  155.8932 N.ar    1  UNL1       -0.1660
     25 N         143.5566  136.6230  156.1095 N.ar    1  UNL1       -0.2393
     26 C         142.6962  136.5399  157.3355 C.ar    1  UNL1        0.1118
     27 C         143.9814  135.4689  155.2506 C.3     1  UNL1        0.2302
     28 C         142.9555  134.5132  154.7176 C.3     1  UNL1        0.4200
     29 F         141.9296  133.5574  154.1845 F       1  UNL1       -0.1679
     30 F         142.5832  135.5050  153.6557 F       1  UNL1       -0.1679
     31 F         143.3277  133.5213  155.7794 F       1  UNL1       -0.1679
@<TRIPOS>BOND
     1    18    19    1
     2    19    12    1
     3    12    13   ar
     4    13    14   ar
     5    14     1    1
     6     1     2   ar
     7     2     3   ar
     8     3     4   ar
     9     4     5   ar
    10     5     6   ar
    11     5     7    1
    12     7     8    1
    13     7     9    1
    14     9    22    1
    15    22    23   ar
    16    23    24   ar
    17    24    25   ar
    18    25    27    1
    19    27    28    1
    20    28    29    1
    21    28    30    1
    22    28    31    1
    23    25    26   ar
    24     9    10   am
    25    10    11    2
    26    14    15   ar
    27    15    16   ar
    28    16    17   ar
    29    17    20    1
    30    20    21    1
    31    17    12   ar
    32     6     1   ar
    33    26    22   ar
    34    10     4    1
@<TRIPOS>MOLECULE
*****
 31 34 0 0 0
SMALL
GASTEIGER

@<TRIPOS>ATOM
      1 C         138.5166  140.6052  161.1160 C.ar    1  UNL1        0.0826
      2 C         138.1279  139.1717  161.3251 C.ar    1  UNL1        0.0193
      3 C         138.2119  138.5639  162.6939 C.ar    1  UNL1        0.0073
      4 C         138.6846  139.3898  163.8535 C.ar    1  UNL1        0.0691
      5 C         139.0732  140.8233  163.6443 C.ar    1  UNL1        0.0816
      6 N         138.9892  141.4311  162.2756 N.ar    1  UNL1       -0.2478
      7 C         139.4989  141.3860  164.9680 C.3     1  UNL1        0.1203
      8 C         139.9679  142.7883  165.2201 C.3     1  UNL1        0.0284
      9 N         139.3734  140.3002  165.9953 N.am    1  UNL1       -0.2485
     10 C         138.8701  139.0664  165.3065 C.2     1  UNL1        0.2542
     11 O         138.5998  137.7419  165.9565 O.2     1  UNL1       -0.2695
     12 C         137.6856  141.0684  157.2630 C.ar    1  UNL1        0.1916
     13 C         137.7695  140.4606  158.6318 C.ar    1  UNL1        0.0448
     14 C         138.4326  141.2131  159.7472 C.ar    1  UNL1        0.0400
     15 C         139.0117  142.5734  159.4938 C.ar    1  UNL1        0.1037
     16 N         138.9277  143.1812  158.1251 N.ar    1  UNL1       -0.2075
     17 C         138.2647  142.4287  157.0096 C.ar    1  UNL1        0.2601
     18 C         135.6000  140.6185  155.7805 C.3     1  UNL1        0.2527
     19 O         137.0225  140.3159  156.1476 O.3     1  UNL1       -0.4667
     20 O         138.1807  143.0365  155.6409 O.3     1  UNL1       -0.4541
     21 C         137.1150  144.0461  155.3327 C.3     1  UNL1        0.2543
     22 C         139.6948  140.4261  167.4551 C.ar    1  UNL1        0.0942
     23 C         138.9627  139.7563  168.5800 C.ar    1  UNL1        0.1365
     24 N         139.6202  140.1602  169.8663 N.ar    1  UNL1       -0.1660
     25 N         140.7585  141.0796  169.5364 N.ar    1  UNL1       -0.2393
     26 C         140.8046  141.2439  168.0460 C.ar    1  UNL1        0.1118
     27 C         141.6876  141.7219  170.5234 C.3     1  UNL1        0.2302
     28 C         143.0689  142.1255  170.1002 C.3     1  UNL1        0.4200
     29 F         144.4503  142.5291  169.6770 F       1  UNL1       -0.1679
     30 F         142.7126  143.5671  170.3120 F       1  UNL1       -0.1679
     31 F         143.4253  140.6840  169.8884 F       1  UNL1       -0.1679
@<TRIPOS>BOND
     1    18    19    1
     2    19    12    1
     3    12    13   ar
     4    13    14   ar
     5    14     1    1
     6     1     2   ar
     7     2     3   ar
     8     3     4   ar
     9     4     5   ar
    10     5     6   ar
    11     5     7    1
    12     7     8    1
    13     7     9    1
    14     9    22    1
    15    22    23   ar
    16    23    24   ar
    17    24    25   ar
    18    25    27    1
    19    27    28    1
    20    28    29    1
    21    28    30    1
    22    28    31    1
    23    25    26   ar
    24     9    10   am
    25    10    11    2
    26    14    15   ar
    27    15    16   ar
    28    16    17   ar
    29    17    20    1
    30    20    21    1
    31    17    12   ar
    32     6     1   ar
    33    26    22   ar
    34    10     4    1
@<TRIPOS>MOLECULE
*****
 31 34 0 0 0
SMALL
GASTEIGER

@<TRIPOS>ATOM
      1 C         140.6361  144.6125  160.4547 C.ar    1  UNL1        0.0826
      2 C         140.0613  145.7487  161.2475 C.ar    1  UNL1        0.0193
      3 C         139.6426  145.5332  162.6716 C.ar    1  UNL1        0.0073
      4 C         139.7987  144.1815  163.3030 C.ar    1  UNL1        0.0691
      5 C         140.3735  143.0453  162.5102 C.ar    1  UNL1        0.0816
      6 N         140.7922  143.2608  161.0860 N.ar    1  UNL1       -0.2478
      7 C         140.4070  141.8337  163.3939 C.3     1  UNL1        0.1203
      8 C         140.9069  140.4736  163.0065 C.3     1  UNL1        0.0284
      9 N         139.8529  142.2211  164.7329 N.am    1  UNL1       -0.2485
     10 C         139.4769  143.6722  164.6767 C.2     1  UNL1        0.2542
     11 O         138.8834  144.4732  165.7975 O.2     1  UNL1       -0.2695
     12 C         140.7106  145.9981  156.7365 C.ar    1  UNL1        0.1916
     13 C         140.2919  145.7826  158.1607 C.ar    1  UNL1        0.0448
     14 C         141.0548  144.8279  159.0305 C.ar    1  UNL1        0.0400
     15 C         142.2363  144.0886  158.4761 C.ar    1  UNL1        0.1037
     16 N         142.6550  144.3040  157.0519 N.ar    1  UNL1       -0.2075
     17 C         141.8922  145.2588  156.1821 C.ar    1  UNL1        0.2601
     18 C         138.6573  146.5236  155.2340 C.3     1  UNL1        0.2527
     19 O         139.9478  146.9528  155.8667 O.3     1  UNL1       -0.4667
     20 O         142.3109  145.4741  154.7579 O.3     1  UNL1       -0.4541
     21 C         143.4013  144.6343  154.1615 C.3     1  UNL1        0.2543
     22 C         139.7013  141.3163  165.9196 C.ar    1  UNL1        0.0942
     23 C         138.8078  140.1144  166.0035 C.ar    1  UNL1        0.1365
     24 N         138.9709  139.5098  167.3666 N.ar    1  UNL1       -0.1660
     25 N         139.9652  140.3381  168.1250 N.ar    1  UNL1       -0.2393
     26 C         140.4166  141.4546  167.2307 C.ar    1  UNL1        0.1118
     27 C         140.4271  140.0930  169.5309 C.3     1  UNL1        0.2302
     28 C         140.4125  141.2110  170.5308 C.3     1  UNL1        0.4200
     29 F         140.3978  142.3291  171.5308 F       1  UNL1       -0.1679
     30 F         138.9762  141.4888  170.1992 F       1  UNL1       -0.1679
     31 F         141.8487  140.9332  170.8625 F       1  UNL1       -0.1679
@<TRIPOS>BOND
     1    18    19    1
     2    19    12    1
     3    12    13   ar
     4    13    14   ar
     5    14     1    1
     6     1     2   ar
     7     2     3   ar
     8     3     4   ar
     9     4     5   ar
    10     5     6   ar
    11     5     7    1
    12     7     8    1
    13     7     9    1
    14     9    22    1
    15    22    23   ar
    16    23    24   ar
    17    24    25   ar
    18    25    27    1
    19    27    28    1
    20    28    29    1
    21    28    30    1
    22    28    31    1
    23    25    26   ar
    24     9    10   am
    25    10    11    2
    26    14    15   ar
    27    15    16   ar
    28    16    17   ar
    29    17    20    1
    30    20    21    1
    31    17    12   ar
    32     6     1   ar
    33    26    22   ar
    34    10     4    1
