@<TRIPOS>MOLECULE
*****
 34 37 0 0 0
SMALL
GASTEIGER

@<TRIPOS>ATOM
      1 C         141.8942  140.0759  164.3769 C.2     1  UNL1        0.1397
      2 C         142.1742  140.2772  162.9171 C.2     1  UNL1        0.1355
      3 N         141.7542  141.5487  162.2412 N.pl3   1  UNL1       -0.1998
      4 C         141.0542  142.6190  163.0251 C.2     1  UNL1        0.3443
      5 N         140.7743  142.4177  164.4849 N.2     1  UNL1       -0.0580
      6 C         141.1943  141.1462  165.1608 C.3     1  UNL1        0.2692
      7 H         141.9380  141.6808  161.2831 H       1  UNL1        0.2983
      8 C         140.9143  140.9450  166.6207 C.ar    1  UNL1        0.0371
      9 C         139.6719  140.2245  167.0537 C.ar    1  UNL1        0.0030
     10 C         139.3919  140.0233  168.5135 C.ar    1  UNL1        0.0295
     11 C         140.3543  140.5425  169.5404 C.ar    1  UNL1        0.1406
     12 F         140.0742  140.3412  171.0002 F       1  UNL1       -0.2042
     13 C         141.5966  141.2629  169.1074 C.ar    1  UNL1        0.0362
     14 C         141.8766  141.4641  167.6475 C.ar    1  UNL1        0.0372
     15 BR        143.1190  142.1846  167.2144 Br      1  UNL1       -0.0491
     16 C         140.6343  143.8905  162.3492 C.ar    1  UNL1        0.1959
     17 N         140.2682  145.1738  163.0342 N.ar    1  UNL1       -0.2264
     18 C         139.9143  146.1784  161.9780 C.ar    1  UNL1        0.1434
     19 C         140.0616  145.5160  160.6403 C.ar    1  UNL1        0.1897
     20 S         140.5066  144.1020  160.8697 S.2     1  UNL1       -0.0226
     21 O         139.8085  146.1553  159.3071 O.3     1  UNL1       -0.4640
     22 C         140.3959  145.5555  158.0640 C.3     1  UNL1        0.2532
     23 C         142.3142  138.8044  165.0528 C.2     1  UNL1        0.3447
     24 O         143.6086  138.7490  165.8087 O.2     1  UNL1       -0.2450
     25 O         141.4398  137.5883  164.9728 O.3     1  UNL1       -0.4455
     26 C         138.8511  137.4260  165.1215 C.3     1  UNL1        0.0513
     27 C         140.0931  137.6746  164.3179 C.3     1  UNL1        0.2089
     28 C         142.8742  139.2069  162.1331 C.3     1  UNL1        0.1405
     29 N         142.7418  139.1632  160.6396 N.3     1  UNL1       -0.2617
     30 C         143.7487  139.8641  159.7766 C.3     1  UNL1        0.1050
     31 C         143.6163  139.8203  158.2831 C.3     1  UNL1        0.1595
     32 O         142.4771  139.0756  157.6526 O.3     1  UNL1       -0.3508
     33 C         141.4702  138.3747  158.5157 C.3     1  UNL1        0.1595
     34 C         141.6025  138.4184  160.0091 C.3     1  UNL1        0.1050
@<TRIPOS>BOND
     1    26    27    1
     2    27    25    1
     3    25    23    1
     4    23    24    2
     5    23     1    1
     6     1     2    2
     7     2    28    1
     8    28    29    1
     9    29    30    1
    10    30    31    1
    11    31    32    1
    12    32    33    1
    13    33    34    1
    14     2     3    1
    15     3     4    1
    16     4    16    1
    17    16    17   ar
    18    17    18   ar
    19    18    19   ar
    20    19    21    1
    21    21    22    1
    22    19    20   ar
    23     4     5    2
    24     5     6    1
    25     6     8    1
    26     8     9   ar
    27     9    10   ar
    28    10    11   ar
    29    11    12    1
    30    11    13   ar
    31    13    14   ar
    32    14    15    1
    33     6     1    1
    34    14     8   ar
    35    34    29    1
    36    20    16   ar
    37     3     7    1
@<TRIPOS>MOLECULE
*****
 34 37 0 0 0
SMALL
GASTEIGER

@<TRIPOS>ATOM
      1 C         142.0495  143.0408  160.4598 C.2     1  UNL1        0.1397
      2 C         142.9640  142.9790  159.2724 C.2     1  UNL1        0.1355
      3 N         142.6372  143.7576  158.0327 N.pl3   1  UNL1       -0.1998
      4 C         141.3959  144.5980  157.9803 C.2     1  UNL1        0.3443
      5 N         140.4813  144.6597  159.1676 N.2     1  UNL1       -0.0580
      6 C         140.8082  143.8811  160.4073 C.3     1  UNL1        0.2692
      7 H         143.2375  143.7171  157.2534 H       1  UNL1        0.2983
      8 C         139.8935  143.9429  161.5947 C.ar    1  UNL1        0.0371
      9 C         140.1488  144.9388  162.6870 C.ar    1  UNL1        0.0030
     10 C         139.2343  145.0006  163.8743 C.ar    1  UNL1        0.0295
     11 C         138.0644  144.0665  163.9693 C.ar    1  UNL1        0.1406
     12 F         137.1498  144.1283  165.1566 F       1  UNL1       -0.2042
     13 C         137.8091  143.0707  162.8770 C.ar    1  UNL1        0.0362
     14 C         138.7237  143.0089  161.6897 C.ar    1  UNL1        0.0372
     15 BR        138.4684  142.0130  160.5974 Br      1  UNL1       -0.0491
     16 C         141.0691  145.3766  156.7405 C.ar    1  UNL1        0.1959
     17 N         141.7441  145.2372  155.4083 N.ar    1  UNL1       -0.2264
     18 C         141.1021  146.2058  154.4597 C.ar    1  UNL1        0.1434
     19 C         140.0302  146.9437  155.2057 C.ar    1  UNL1        0.1897
     20 S         140.0099  146.4313  156.6153 S.2     1  UNL1       -0.0226
     21 O         139.1358  148.0074  154.6413 O.3     1  UNL1       -0.4640
     22 C         139.6656  149.3932  154.4201 C.3     1  UNL1        0.2532
     23 C         142.3763  142.2622  161.6995 C.2     1  UNL1        0.3447
     24 O         141.7445  140.9217  161.9317 O.2     1  UNL1       -0.2450
     25 O         143.3350  142.8240  162.7071 O.3     1  UNL1       -0.4455
     26 C         143.6405  145.1858  163.7456 C.3     1  UNL1        0.0513
     27 C         143.8005  144.2450  162.5883 C.3     1  UNL1        0.2089
     28 C         144.2055  142.1386  159.3248 C.3     1  UNL1        0.1405
     29 N         144.9403  141.8065  158.0601 N.3     1  UNL1       -0.2617
     30 C         144.5006  140.6439  157.2205 C.3     1  UNL1        0.1050
     31 C         145.2355  140.3118  155.9556 C.3     1  UNL1        0.1595
     32 O         146.4099  141.1423  155.5304 O.3     1  UNL1       -0.3508
     33 C         146.8496  142.3049  156.3700 C.3     1  UNL1        0.1595
     34 C         146.1148  142.6371  157.6348 C.3     1  UNL1        0.1050
@<TRIPOS>BOND
     1    26    27    1
     2    27    25    1
     3    25    23    1
     4    23    24    2
     5    23     1    1
     6     1     2    2
     7     2    28    1
     8    28    29    1
     9    29    30    1
    10    30    31    1
    11    31    32    1
    12    32    33    1
    13    33    34    1
    14     2     3    1
    15     3     4    1
    16     4    16    1
    17    16    17   ar
    18    17    18   ar
    19    18    19   ar
    20    19    21    1
    21    21    22    1
    22    19    20   ar
    23     4     5    2
    24     5     6    1
    25     6     8    1
    26     8     9   ar
    27     9    10   ar
    28    10    11   ar
    29    11    12    1
    30    11    13   ar
    31    13    14   ar
    32    14    15    1
    33     6     1    1
    34    14     8   ar
    35    34    29    1
    36    20    16   ar
    37     3     7    1
@<TRIPOS>MOLECULE
*****
 34 37 0 0 0
SMALL
GASTEIGER

@<TRIPOS>ATOM
      1 C         142.2900  140.4855  161.0906 C.2     1  UNL1        0.1397
      2 C         143.0376  141.0619  159.9250 C.2     1  UNL1        0.1355
      3 N         143.2569  140.2362  158.6921 N.pl3   1  UNL1       -0.1998
      4 C         142.7285  138.8340  158.6248 C.2     1  UNL1        0.3443
      5 N         141.9809  138.2575  159.7904 N.2     1  UNL1       -0.0580
      6 C         141.7616  139.0833  161.0233 C.3     1  UNL1        0.2692
      7 H         143.7476  140.6145  157.9271 H       1  UNL1        0.2983
      8 C         141.0139  138.5068  162.1889 C.ar    1  UNL1        0.0371
      9 C         141.7614  137.8252  163.2964 C.ar    1  UNL1        0.0030
     10 C         141.0138  137.2487  164.4620 C.ar    1  UNL1        0.0295
     11 C         139.5186  137.3537  164.5201 C.ar    1  UNL1        0.1406
     12 F         138.7709  136.7772  165.6857 F       1  UNL1       -0.2042
     13 C         138.7710  138.0353  163.4126 C.ar    1  UNL1        0.0362
     14 C         139.5187  138.6118  162.2470 C.ar    1  UNL1        0.0372
     15 BR        138.7712  139.2934  161.1394 Br      1  UNL1       -0.0491
     16 C         142.9478  138.0082  157.3919 C.ar    1  UNL1        0.1959
     17 N         144.0256  138.2185  156.3700 N.ar    1  UNL1       -0.2264
     18 C         143.8717  137.1674  155.3110 C.ar    1  UNL1        0.1434
     19 C         142.6989  136.3075  155.6783 C.ar    1  UNL1        0.1897
     20 S         142.1279  136.8271  156.9644 S.2     1  UNL1       -0.0226
     21 O         142.1869  135.1340  154.8968 O.3     1  UNL1       -0.4640
     22 C         141.8006  133.8707  155.6073 C.3     1  UNL1        0.2532
     23 C         142.0707  141.3113  162.3235 C.2     1  UNL1        0.3447
     24 O         140.7904  142.0731  162.4980 O.2     1  UNL1       -0.2450
     25 O         143.1316  141.3752  163.3818 O.3     1  UNL1       -0.4455
     26 C         144.9226  139.6704  164.1795 C.3     1  UNL1        0.0513
     27 C         144.4414  140.6743  163.1741 C.3     1  UNL1        0.2089
     28 C         143.5660  142.4642  159.9922 C.3     1  UNL1        0.1405
     29 N         142.7854  143.5900  159.3812 N.3     1  UNL1       -0.2617
     30 C         141.8022  144.3590  160.2130 C.3     1  UNL1        0.1050
     31 C         141.0216  145.4848  159.6019 C.3     1  UNL1        0.1595
     32 O         141.2243  145.8415  158.1591 O.3     1  UNL1       -0.3508
     33 C         142.2075  145.0724  157.3273 C.3     1  UNL1        0.1595
     34 C         142.9881  143.9467  157.9384 C.3     1  UNL1        0.1050
@<TRIPOS>BOND
     1    26    27    1
     2    27    25    1
     3    25    23    1
     4    23    24    2
     5    23     1    1
     6     1     2    2
     7     2    28    1
     8    28    29    1
     9    29    30    1
    10    30    31    1
    11    31    32    1
    12    32    33    1
    13    33    34    1
    14     2     3    1
    15     3     4    1
    16     4    16    1
    17    16    17   ar
    18    17    18   ar
    19    18    19   ar
    20    19    21    1
    21    21    22    1
    22    19    20   ar
    23     4     5    2
    24     5     6    1
    25     6     8    1
    26     8     9   ar
    27     9    10   ar
    28    10    11   ar
    29    11    12    1
    30    11    13   ar
    31    13    14   ar
    32    14    15    1
    33     6     1    1
    34    14     8   ar
    35    34    29    1
    36    20    16   ar
    37     3     7    1
@<TRIPOS>MOLECULE
*****
 34 37 0 0 0
SMALL
GASTEIGER

@<TRIPOS>ATOM
      1 C         139.9490  141.1133  160.8935 C.2     1  UNL1        0.1397
      2 C         140.1066  140.3305  159.6238 C.2     1  UNL1        0.1355
      3 N         139.3630  140.7462  158.3892 N.pl3   1  UNL1       -0.1998
      4 C         138.4619  141.9448  158.4243 C.2     1  UNL1        0.3443
      5 N         138.3044  142.7277  159.6940 N.2     1  UNL1       -0.0580
      6 C         139.0479  142.3119  160.9286 C.3     1  UNL1        0.2692
      7 H         139.4664  140.2324  157.5558 H       1  UNL1        0.2983
      8 C         138.8903  143.0949  162.1984 C.ar    1  UNL1        0.0371
      9 C         137.8448  142.6993  163.1986 C.ar    1  UNL1        0.0030
     10 C         137.6871  143.4821  164.4683 C.ar    1  UNL1        0.0295
     11 C         138.5751  144.6606  164.7379 C.ar    1  UNL1        0.1406
     12 F         138.4175  145.4435  166.0077 F       1  UNL1       -0.2042
     13 C         139.6207  145.0562  163.7378 C.ar    1  UNL1        0.0362
     14 C         139.7783  144.2733  162.4680 C.ar    1  UNL1        0.0372
     15 BR        140.8239  144.6689  161.4679 Br      1  UNL1       -0.0491
     16 C         137.7183  142.3606  157.1897 C.ar    1  UNL1        0.1959
     17 N         137.8920  143.6535  156.4493 N.ar    1  UNL1       -0.2264
     18 C         136.9515  143.6484  155.2807 C.ar    1  UNL1        0.1434
     19 C         136.1967  142.3523  155.2989 C.ar    1  UNL1        0.1897
     20 S         136.6706  141.5564  156.4787 S.2     1  UNL1       -0.0226
     21 O         135.1514  141.9269  154.3108 O.3     1  UNL1       -0.4640
     22 C         134.3151  140.7112  154.5804 C.3     1  UNL1        0.2532
     23 C         140.6926  140.6976  162.1281 C.2     1  UNL1        0.3447
     24 O         141.9365  141.4295  162.5367 O.2     1  UNL1       -0.2450
     25 O         140.1922  139.5499  162.9542 O.3     1  UNL1       -0.4455
     26 C         138.2211  138.0782  162.1183 C.3     1  UNL1        0.0513
     27 C         138.7311  139.2105  162.9596 C.3     1  UNL1        0.2089
     28 C         141.0077  139.1318  159.5886 C.3     1  UNL1        0.1405
     29 N         142.0171  138.9843  158.4889 N.3     1  UNL1       -0.2617
     30 C         142.9545  140.1125  158.1751 C.3     1  UNL1        0.1050
     31 C         143.9640  139.9650  157.0753 C.3     1  UNL1        0.1595
     32 O         144.0359  138.6894  156.2895 O.3     1  UNL1       -0.3508
     33 C         143.0984  137.5612  156.6033 C.3     1  UNL1        0.1595
     34 C         142.0891  137.7087  157.7030 C.3     1  UNL1        0.1050
@<TRIPOS>BOND
     1    26    27    1
     2    27    25    1
     3    25    23    1
     4    23    24    2
     5    23     1    1
     6     1     2    2
     7     2    28    1
     8    28    29    1
     9    29    30    1
    10    30    31    1
    11    31    32    1
    12    32    33    1
    13    33    34    1
    14     2     3    1
    15     3     4    1
    16     4    16    1
    17    16    17   ar
    18    17    18   ar
    19    18    19   ar
    20    19    21    1
    21    21    22    1
    22    19    20   ar
    23     4     5    2
    24     5     6    1
    25     6     8    1
    26     8     9   ar
    27     9    10   ar
    28    10    11   ar
    29    11    12    1
    30    11    13   ar
    31    13    14   ar
    32    14    15    1
    33     6     1    1
    34    14     8   ar
    35    34    29    1
    36    20    16   ar
    37     3     7    1
@<TRIPOS>MOLECULE
*****
 34 37 0 0 0
SMALL
GASTEIGER

@<TRIPOS>ATOM
      1 C         140.1953  140.6100  161.8964 C.2     1  UNL1        0.1397
      2 C         139.4021  140.9879  160.6807 C.2     1  UNL1        0.1355
      3 N         139.5529  140.2012  159.4124 N.pl3   1  UNL1       -0.1998
      4 C         140.4968  139.0367  159.3599 C.2     1  UNL1        0.3443
      5 N         141.2900  138.6588  160.5757 N.2     1  UNL1       -0.0580
      6 C         141.1393  139.4455  161.8439 C.3     1  UNL1        0.2692
      7 H         139.0323  140.4492  158.6145 H       1  UNL1        0.2983
      8 C         141.9325  139.0676  163.0597 C.ar    1  UNL1        0.0371
      9 C         141.3324  138.1639  164.0956 C.ar    1  UNL1        0.0030
     10 C         142.1256  137.7859  165.3113 C.ar    1  UNL1        0.0295
     11 C         143.5189  138.3117  165.4911 C.ar    1  UNL1        0.1406
     12 F         144.3121  137.9338  166.7069 F       1  UNL1       -0.2042
     13 C         144.1190  139.2154  164.4552 C.ar    1  UNL1        0.0362
     14 C         143.3258  139.5934  163.2394 C.ar    1  UNL1        0.0372
     15 BR        143.9259  140.4971  162.2034 Br      1  UNL1       -0.0491
     16 C         140.6476  138.2500  158.0917 C.ar    1  UNL1        0.1959
     17 N         139.5306  137.7791  157.2082 N.ar    1  UNL1       -0.2264
     18 C         140.1345  137.0341  156.0547 C.ar    1  UNL1        0.1434
     19 C         141.6247  137.0447  156.2253 C.ar    1  UNL1        0.1897
     20 S         141.9418  137.7961  157.4842 S.2     1  UNL1       -0.0226
     21 O         142.6226  136.4145  155.2996 O.3     1  UNL1       -0.4640
     22 C         144.0726  136.3655  155.6807 C.3     1  UNL1        0.2532
     23 C         140.0446  141.3967  163.1646 C.2     1  UNL1        0.3447
     24 O         141.0910  142.3979  163.5551 O.2     1  UNL1       -0.2450
     25 O         138.8474  141.1822  164.0424 O.3     1  UNL1       -0.4455
     26 C         138.2583  139.4826  165.9172 C.3     1  UNL1        0.0513
     27 C         139.0259  140.6818  165.4452 C.3     1  UNL1        0.2089
     28 C         138.4581  142.1525  160.7331 C.3     1  UNL1        0.1405
     29 N         138.9798  143.5282  161.0249 N.3     1  UNL1       -0.2617
     30 C         139.9685  144.1681  160.0958 C.3     1  UNL1        0.1050
     31 C         140.4901  145.5439  160.3876 C.3     1  UNL1        0.1595
     32 O         140.0231  146.2798  161.6084 O.3     1  UNL1       -0.3508
     33 C         139.0344  145.6399  162.5374 C.3     1  UNL1        0.1595
     34 C         138.5128  144.2642  162.2457 C.3     1  UNL1        0.1050
@<TRIPOS>BOND
     1    26    27    1
     2    27    25    1
     3    25    23    1
     4    23    24    2
     5    23     1    1
     6     1     2    2
     7     2    28    1
     8    28    29    1
     9    29    30    1
    10    30    31    1
    11    31    32    1
    12    32    33    1
    13    33    34    1
    14     2     3    1
    15     3     4    1
    16     4    16    1
    17    16    17   ar
    18    17    18   ar
    19    18    19   ar
    20    19    21    1
    21    21    22    1
    22    19    20   ar
    23     4     5    2
    24     5     6    1
    25     6     8    1
    26     8     9   ar
    27     9    10   ar
    28    10    11   ar
    29    11    12    1
    30    11    13   ar
    31    13    14   ar
    32    14    15    1
    33     6     1    1
    34    14     8   ar
    35    34    29    1
    36    20    16   ar
    37     3     7    1
@<TRIPOS>MOLECULE
*****
 34 37 0 0 0
SMALL
GASTEIGER

@<TRIPOS>ATOM
      1 C         141.2206  140.1634  160.5339 C.2     1  UNL1        0.1397
      2 C         140.9369  140.4117  159.0820 C.2     1  UNL1        0.1355
      3 N         141.5269  139.5109  158.0378 N.pl3   1  UNL1       -0.1998
      4 C         142.4006  138.3618  158.4454 C.2     1  UNL1        0.3443
      5 N         142.6842  138.1134  159.8972 N.2     1  UNL1       -0.0580
      6 C         142.0942  139.0143  160.9414 C.3     1  UNL1        0.2692
      7 H         141.3408  139.6739  157.0849 H       1  UNL1        0.2983
      8 C         142.3779  138.7659  162.3933 C.ar    1  UNL1        0.0371
      9 C         141.4852  137.8590  163.1875 C.ar    1  UNL1        0.0030
     10 C         141.7688  137.6106  164.6393 C.ar    1  UNL1        0.0295
     11 C         142.9452  138.2691  165.2971 C.ar    1  UNL1        0.1406
     12 F         143.2288  138.0207  166.7489 F       1  UNL1       -0.2042
     13 C         143.8379  139.1760  164.5029 C.ar    1  UNL1        0.0362
     14 C         143.5542  139.4244  163.0510 C.ar    1  UNL1        0.0372
     15 BR        144.4469  140.3313  162.2569 Br      1  UNL1       -0.0491
     16 C         142.9906  137.4609  157.4012 C.ar    1  UNL1        0.1959
     17 N         143.8292  137.8936  156.2352 N.ar    1  UNL1       -0.2264
     18 C         144.2025  136.6694  155.4530 C.ar    1  UNL1        0.1434
     19 C         143.5946  135.4800  156.1355 C.ar    1  UNL1        0.1897
     20 S         142.8456  135.9693  157.3395 S.2     1  UNL1       -0.0226
     21 O         143.7146  134.0522  155.6919 O.3     1  UNL1       -0.4640
     22 C         143.9361  132.9682  156.7048 C.3     1  UNL1        0.2532
     23 C         140.6306  141.0642  161.5781 C.2     1  UNL1        0.3447
     24 O         141.3287  142.3385  161.9506 O.2     1  UNL1       -0.2450
     25 O         139.3424  140.6908  162.2498 O.3     1  UNL1       -0.4455
     26 C         138.0362  138.4579  162.0092 C.3     1  UNL1        0.0513
     27 C         138.3365  139.8458  161.5258 C.3     1  UNL1        0.2089
     28 C         140.0632  141.5609  158.6744 C.3     1  UNL1        0.1405
     29 N         140.6318  142.9471  158.6038 N.3     1  UNL1       -0.2617
     30 C         139.9104  144.0879  159.2581 C.3     1  UNL1        0.1050
     31 C         140.4791  145.4742  159.1875 C.3     1  UNL1        0.1595
     32 O         141.7691  145.7196  158.4625 O.3     1  UNL1       -0.3508
     33 C         142.4905  144.5788  157.8082 C.3     1  UNL1        0.1595
     34 C         141.9219  143.1926  157.8788 C.3     1  UNL1        0.1050
@<TRIPOS>BOND
     1    26    27    1
     2    27    25    1
     3    25    23    1
     4    23    24    2
     5    23     1    1
     6     1     2    2
     7     2    28    1
     8    28    29    1
     9    29    30    1
    10    30    31    1
    11    31    32    1
    12    32    33    1
    13    33    34    1
    14     2     3    1
    15     3     4    1
    16     4    16    1
    17    16    17   ar
    18    17    18   ar
    19    18    19   ar
    20    19    21    1
    21    21    22    1
    22    19    20   ar
    23     4     5    2
    24     5     6    1
    25     6     8    1
    26     8     9   ar
    27     9    10   ar
    28    10    11   ar
    29    11    12    1
    30    11    13   ar
    31    13    14   ar
    32    14    15    1
    33     6     1    1
    34    14     8   ar
    35    34    29    1
    36    20    16   ar
    37     3     7    1
@<TRIPOS>MOLECULE
*****
 34 37 0 0 0
SMALL
GASTEIGER

@<TRIPOS>ATOM
      1 C         141.4709  139.6736  161.7945 C.2     1  UNL1        0.1397
      2 C         141.9543  139.9491  160.4016 C.2     1  UNL1        0.1355
      3 N         141.7198  141.2933  159.7785 N.pl3   1  UNL1       -0.1998
      4 C         141.0019  142.3619  160.5483 C.2     1  UNL1        0.3443
      5 N         140.5185  142.0863  161.9413 N.2     1  UNL1       -0.0580
      6 C         140.7530  140.7422  162.5644 C.3     1  UNL1        0.2692
      7 H         142.0371  141.4742  158.8642 H       1  UNL1        0.2983
      8 C         140.2696  140.4666  163.9574 C.ar    1  UNL1        0.0371
      9 C         141.1911  140.6657  165.1241 C.ar    1  UNL1        0.0030
     10 C         140.7077  140.3902  166.5171 C.ar    1  UNL1        0.0295
     11 C         139.3028  139.9156  166.7434 C.ar    1  UNL1        0.1406
     12 F         138.8194  139.6401  168.1364 F       1  UNL1       -0.2042
     13 C         138.3813  139.7166  165.5766 C.ar    1  UNL1        0.0362
     14 C         138.8648  139.9921  164.1836 C.ar    1  UNL1        0.0372
     15 BR        137.9433  139.7931  163.0169 Br      1  UNL1       -0.0491
     16 C         140.7674  143.7060  159.9252 C.ar    1  UNL1        0.1959
     17 N         140.2561  144.9275  160.6300 N.ar    1  UNL1       -0.2264
     18 C         140.1758  146.0411  159.6283 C.ar    1  UNL1        0.1434
     19 C         140.6374  145.5079  158.3044 C.ar    1  UNL1        0.1897
     20 S         141.0031  144.0648  158.4879 S.2     1  UNL1       -0.0226
     21 O         140.7190  146.2820  157.0221 O.3     1  UNL1       -0.4640
     22 C         139.4685  146.8096  156.3836 C.3     1  UNL1        0.2532
     23 C         141.7054  138.3294  162.4176 C.2     1  UNL1        0.3447
     24 O         140.6928  137.2362  162.2459 O.2     1  UNL1       -0.2450
     25 O         142.9525  138.0785  163.2125 O.3     1  UNL1       -0.4455
     26 C         144.7778  139.4649  164.4357 C.3     1  UNL1        0.0513
     27 C         144.0811  139.0655  163.1687 C.3     1  UNL1        0.2089
     28 C         142.6722  138.8805  159.6316 C.3     1  UNL1        0.1405
     29 N         141.9749  138.1655  158.5126 N.3     1  UNL1       -0.2617
     30 C         142.7346  137.2025  157.6492 C.3     1  UNL1        0.1050
     31 C         142.0371  136.4874  156.5300 C.3     1  UNL1        0.1595
     32 O         140.5801  136.7355  156.2743 O.3     1  UNL1       -0.3508
     33 C         139.8204  137.6985  157.1377 C.3     1  UNL1        0.1595
     34 C         140.5177  138.4135  158.2568 C.3     1  UNL1        0.1050
@<TRIPOS>BOND
     1    26    27    1
     2    27    25    1
     3    25    23    1
     4    23    24    2
     5    23     1    1
     6     1     2    2
     7     2    28    1
     8    28    29    1
     9    29    30    1
    10    30    31    1
    11    31    32    1
    12    32    33    1
    13    33    34    1
    14     2     3    1
    15     3     4    1
    16     4    16    1
    17    16    17   ar
    18    17    18   ar
    19    18    19   ar
    20    19    21    1
    21    21    22    1
    22    19    20   ar
    23     4     5    2
    24     5     6    1
    25     6     8    1
    26     8     9   ar
    27     9    10   ar
    28    10    11   ar
    29    11    12    1
    30    11    13   ar
    31    13    14   ar
    32    14    15    1
    33     6     1    1
    34    14     8   ar
    35    34    29    1
    36    20    16   ar
    37     3     7    1
@<TRIPOS>MOLECULE
*****
 34 37 0 0 0
SMALL
GASTEIGER

@<TRIPOS>ATOM
      1 C         139.1282  141.3700  160.7771 C.2     1  UNL1        0.1397
      2 C         139.2227  140.7634  159.4085 C.2     1  UNL1        0.1355
      3 N         139.3051  141.6481  158.2001 N.pl3   1  UNL1       -0.1998
      4 C         139.2932  143.1395  158.3602 C.2     1  UNL1        0.3443
      5 N         139.1987  143.7461  159.7288 N.2     1  UNL1       -0.0580
      6 C         139.1163  142.8613  160.9373 C.3     1  UNL1        0.2692
      7 H         139.3671  141.2500  157.3018 H       1  UNL1        0.2983
      8 C         139.0219  143.4680  162.3059 C.ar    1  UNL1        0.0371
      9 C         137.6834  143.6315  162.9631 C.ar    1  UNL1        0.0030
     10 C         137.5890  144.2381  164.3317 C.ar    1  UNL1        0.0295
     11 C         138.8330  144.6812  165.0431 C.ar    1  UNL1        0.1406
     12 F         138.7385  145.2879  166.4117 F       1  UNL1       -0.2042
     13 C         140.1714  144.5177  164.3860 C.ar    1  UNL1        0.0362
     14 C         140.2658  143.9111  163.0173 C.ar    1  UNL1        0.0372
     15 BR        141.6043  143.7476  162.3601 Br      1  UNL1       -0.0491
     16 C         139.3756  144.0243  157.1517 C.ar    1  UNL1        0.1959
     17 N         138.7363  143.7606  155.8207 N.ar    1  UNL1       -0.2264
     18 C         139.0775  144.9014  154.9084 C.ar    1  UNL1        0.1434
     19 C         139.9276  145.8702  155.6757 C.ar    1  UNL1        0.1897
     20 S         140.1119  145.3281  157.0621 S.2     1  UNL1       -0.0226
     21 O         140.4940  147.1554  155.1491 O.3     1  UNL1       -0.4640
     22 C         140.6595  147.3523  153.6713 C.3     1  UNL1        0.2532
     23 C         139.0458  140.4852  161.9856 C.2     1  UNL1        0.3447
     24 O         137.7115  140.0028  162.4723 O.2     1  UNL1       -0.2450
     25 O         140.2976  140.0828  162.7073 O.3     1  UNL1       -0.4455
     26 C         140.1869  137.5070  163.0289 C.3     1  UNL1        0.0513
     27 C         140.2904  138.8856  163.6111 C.3     1  UNL1        0.2089
     28 C         139.2346  139.2720  159.2483 C.3     1  UNL1        0.1405
     29 N         140.4939  138.5726  158.8300 N.3     1  UNL1       -0.2617
     30 C         140.5967  137.9678  157.4613 C.3     1  UNL1        0.1050
     31 C         141.8562  137.2684  157.0430 C.3     1  UNL1        0.1595
     32 O         143.0127  137.1740  157.9935 O.3     1  UNL1       -0.3508
     33 C         142.9099  137.7789  159.3623 C.3     1  UNL1        0.1595
     34 C         141.6506  138.4782  159.7806 C.3     1  UNL1        0.1050
@<TRIPOS>BOND
     1    26    27    1
     2    27    25    1
     3    25    23    1
     4    23    24    2
     5    23     1    1
     6     1     2    2
     7     2    28    1
     8    28    29    1
     9    29    30    1
    10    30    31    1
    11    31    32    1
    12    32    33    1
    13    33    34    1
    14     2     3    1
    15     3     4    1
    16     4    16    1
    17    16    17   ar
    18    17    18   ar
    19    18    19   ar
    20    19    21    1
    21    21    22    1
    22    19    20   ar
    23     4     5    2
    24     5     6    1
    25     6     8    1
    26     8     9   ar
    27     9    10   ar
    28    10    11   ar
    29    11    12    1
    30    11    13   ar
    31    13    14   ar
    32    14    15    1
    33     6     1    1
    34    14     8   ar
    35    34    29    1
    36    20    16   ar
    37     3     7    1
@<TRIPOS>MOLECULE
*****
 34 37 0 0 0
SMALL
GASTEIGER

@<TRIPOS>ATOM
      1 C         142.2041  141.1838  161.6109 C.2     1  UNL1        0.1397
      2 C         141.7809  141.6547  160.2511 C.2     1  UNL1        0.1355
      3 N         141.6560  140.6740  159.1230 N.pl3   1  UNL1       -0.1998
      4 C         141.9543  139.2224  159.3547 C.2     1  UNL1        0.3443
      5 N         142.3775  138.7515  160.7144 N.2     1  UNL1       -0.0580
      6 C         142.5024  139.7322  161.8425 C.3     1  UNL1        0.2692
      7 H         141.3782  140.9832  158.2305 H       1  UNL1        0.2983
      8 C         142.9257  139.2612  163.2024 C.ar    1  UNL1        0.0371
      9 C         144.3634  139.3636  163.6177 C.ar    1  UNL1        0.0030
     10 C         144.7866  138.8926  164.9774 C.ar    1  UNL1        0.0295
     11 C         143.7722  138.3192  165.9220 C.ar    1  UNL1        0.1406
     12 F         144.1954  137.8482  167.2817 F       1  UNL1       -0.2042
     13 C         142.3345  138.2168  165.5067 C.ar    1  UNL1        0.0362
     14 C         141.9112  138.6878  164.1468 C.ar    1  UNL1        0.0372
     15 BR        140.4735  138.5853  163.7316 Br      1  UNL1       -0.0491
     16 C         141.8294  138.2417  158.2265 C.ar    1  UNL1        0.1959
     17 N         142.9182  137.3483  157.7103 N.ar    1  UNL1       -0.2264
     18 C         142.3555  136.5367  156.5813 C.ar    1  UNL1        0.1434
     19 C         140.9190  136.9284  156.3998 C.ar    1  UNL1        0.1897
     20 S         140.5939  137.9822  157.4166 S.2     1  UNL1       -0.0226
     21 O         139.9736  136.3653  155.3804 O.3     1  UNL1       -0.4640
     22 C         138.8638  137.2154  154.8364 C.3     1  UNL1        0.2532
     23 C         142.3290  142.1645  162.7390 C.2     1  UNL1        0.3447
     24 O         143.5135  143.0822  162.8074 O.2     1  UNL1       -0.2450
     25 O         141.2693  142.2275  163.7987 O.3     1  UNL1       -0.4455
     26 C         142.7012  141.9197  165.9447 C.3     1  UNL1        0.0513
     27 C         141.6272  142.6490  165.1931 C.3     1  UNL1        0.2089
     28 C         141.4825  143.1064  160.0194 C.3     1  UNL1        0.1405
     29 N         140.4140  143.7897  160.8203 N.3     1  UNL1       -0.2617
     30 C         140.6037  145.2089  161.2674 C.3     1  UNL1        0.1050
     31 C         139.5352  145.8921  162.0683 C.3     1  UNL1        0.1595
     32 O         138.2770  145.1561  162.4222 O.3     1  UNL1       -0.3508
     33 C         138.0873  143.7369  161.9751 C.3     1  UNL1        0.1595
     34 C         139.1558  143.0537  161.1742 C.3     1  UNL1        0.1050
@<TRIPOS>BOND
     1    26    27    1
     2    27    25    1
     3    25    23    1
     4    23    24    2
     5    23     1    1
     6     1     2    2
     7     2    28    1
     8    28    29    1
     9    29    30    1
    10    30    31    1
    11    31    32    1
    12    32    33    1
    13    33    34    1
    14     2     3    1
    15     3     4    1
    16     4    16    1
    17    16    17   ar
    18    17    18   ar
    19    18    19   ar
    20    19    21    1
    21    21    22    1
    22    19    20   ar
    23     4     5    2
    24     5     6    1
    25     6     8    1
    26     8     9   ar
    27     9    10   ar
    28    10    11   ar
    29    11    12    1
    30    11    13   ar
    31    13    14   ar
    32    14    15    1
    33     6     1    1
    34    14     8   ar
    35    34    29    1
    36    20    16   ar
    37     3     7    1
