@<TRIPOS>MOLECULE
*****
 26 27 0 0 0
SMALL
GASTEIGER

@<TRIPOS>ATOM
      1 C         138.7703  139.3385  165.3188 C.ar    1  UNL1        0.0252
      2 C         138.2733  140.4863  164.4909 C.ar    1  UNL1       -0.0009
      3 C         138.0629  140.3115  163.0161 C.ar    1  UNL1        0.0210
      4 C         138.3494  138.9888  162.3692 C.ar    1  UNL1        0.1397
      5 F         138.1390  138.8140  160.8943 F       1  UNL1       -0.2044
      6 C         138.8464  137.8410  163.1971 C.ar    1  UNL1        0.0587
      7 C         139.0568  138.0158  164.6719 C.ar    1  UNL1        0.1401
      8 F         139.5538  136.8680  165.4999 F       1  UNL1       -0.2044
      9 C         137.6991  138.7339  166.8040 C.3     1  UNL1        0.0291
     10 C         138.9807  139.5133  166.7937 C.3     1  UNL1        0.1080
     11 C         140.1891  140.2320  166.2712 C.3     1  UNL1        0.0388
     12 C         141.1630  140.8548  167.2271 C.3     1  UNL1        0.0671
     13 S         140.9283  140.7589  168.7056 S.3     1  UNL1       -0.0807
     14 C         139.7198  140.0402  169.2281 C.2     1  UNL1        0.1482
     15 N         139.4852  139.9443  170.7065 N.pl3   1  UNL1       -0.3380
     16 N         138.7460  139.4174  168.2722 N.2     1  UNL1       -0.2509
     17 H         140.1243  140.3531  171.3339 H       1  UNL1        0.1442
     18 H         138.6920  139.4726  171.0495 H       1  UNL1        0.1442
     19 C         137.5658  141.4593  162.1881 C.3     1  UNL1        0.0981
     20 N         137.1777  142.7484  162.8495 N.3     1  UNL1       -0.2866
     21 H         136.9607  142.5271  163.8213 H       1  UNL1        0.1238
     22 C         138.1395  143.8992  162.8718 C.3     1  UNL1        0.1734
     23 C         138.4950  144.5545  164.1735 C.3     1  UNL1        0.4118
     24 F         138.8504  145.2097  165.4751 F       1  UNL1       -0.1685
     25 F         137.4144  143.7740  164.8614 F       1  UNL1       -0.1685
     26 F         139.5755  145.3349  163.4855 F       1  UNL1       -0.1685
@<TRIPOS>BOND
     1    10     9    1
     2    10     1    1
     3     1     2   ar
     4     2     3   ar
     5     3    19    1
     6    19    20    1
     7    20    22    1
     8    22    23    1
     9    23    24    1
    10    23    25    1
    11    23    26    1
    12     3     4   ar
    13     4     5    1
    14     4     6   ar
    15     6     7   ar
    16     7     8    1
    17    10    11    1
    18    11    12    1
    19    12    13    1
    20    13    14    1
    21    14    15    1
    22    14    16    2
    23    16    10    1
    24     7     1   ar
    25    20    21    1
    26    15    17    1
    27    15    18    1
@<TRIPOS>MOLECULE
*****
 26 27 0 0 0
SMALL
GASTEIGER

@<TRIPOS>ATOM
      1 C         142.1733  141.7837  166.3420 C.ar    1  UNL1        0.0252
      2 C         142.5673  142.0294  167.7683 C.ar    1  UNL1       -0.0009
      3 C         142.8341  140.8709  168.6829 C.ar    1  UNL1        0.0210
      4 C         142.7069  139.4666  168.1712 C.ar    1  UNL1        0.1397
      5 F         142.9738  138.3080  169.0859 F       1  UNL1       -0.2044
      6 C         142.3129  139.2208  166.7449 C.ar    1  UNL1        0.0587
      7 C         142.0461  140.3794  165.8303 C.ar    1  UNL1        0.1401
      8 F         141.6521  140.1337  164.4040 F       1  UNL1       -0.2044
      9 C         140.5102  142.6492  165.8906 C.3     1  UNL1        0.0291
     10 C         141.9065  142.9422  165.4273 C.3     1  UNL1        0.1080
     11 C         143.3954  142.8329  165.2816 C.3     1  UNL1        0.0388
     12 C         144.1325  143.7803  164.3822 C.3     1  UNL1        0.0671
     13 S         143.3807  144.8371  163.6284 S.3     1  UNL1       -0.0807
     14 C         141.8919  144.9464  163.7741 C.2     1  UNL1        0.1482
     15 N         141.1401  146.0032  163.0203 N.pl3   1  UNL1       -0.3380
     16 N         141.1547  143.9990  164.6735 N.2     1  UNL1       -0.2509
     17 H         141.6239  146.6251  162.4300 H       1  UNL1        0.1442
     18 H         140.1629  146.0749  163.1159 H       1  UNL1        0.1442
     19 C         143.2282  141.1166  170.1092 C.3     1  UNL1        0.0981
     20 N         142.2921  140.7445  171.2207 N.3     1  UNL1       -0.2866
     21 H         142.7347  141.0415  172.0903 H       1  UNL1        0.1238
     22 C         140.8945  141.2889  171.2381 C.3     1  UNL1        0.1734
     23 C         139.8601  140.7298  170.3068 C.3     1  UNL1        0.4118
     24 F         138.8257  140.1706  169.3755 F       1  UNL1       -0.1685
     25 F         140.4146  139.3521  170.5180 F       1  UNL1       -0.1685
     26 F         139.3056  142.1074  170.0956 F       1  UNL1       -0.1685
@<TRIPOS>BOND
     1    10     9    1
     2    10     1    1
     3     1     2   ar
     4     2     3   ar
     5     3    19    1
     6    19    20    1
     7    20    22    1
     8    22    23    1
     9    23    24    1
    10    23    25    1
    11    23    26    1
    12     3     4   ar
    13     4     5    1
    14     4     6   ar
    15     6     7   ar
    16     7     8    1
    17    10    11    1
    18    11    12    1
    19    12    13    1
    20    13    14    1
    21    14    15    1
    22    14    16    2
    23    16    10    1
    24     7     1   ar
    25    20    21    1
    26    15    17    1
    27    15    18    1
@<TRIPOS>MOLECULE
*****
 26 27 0 0 0
SMALL
GASTEIGER

@<TRIPOS>ATOM
      1 C         140.7833  142.2301  166.6166 C.ar    1  UNL1        0.0252
      2 C         140.7021  142.8119  167.9968 C.ar    1  UNL1       -0.0009
      3 C         140.0675  142.0262  169.1057 C.ar    1  UNL1        0.0210
      4 C         139.5140  140.6587  168.8345 C.ar    1  UNL1        0.1397
      5 F         138.8793  139.8729  169.9436 F       1  UNL1       -0.2044
      6 C         139.5951  140.0769  167.4543 C.ar    1  UNL1        0.0587
      7 C         140.2297  140.8626  166.3454 C.ar    1  UNL1        0.1401
      8 F         140.3109  140.2808  164.9651 F       1  UNL1       -0.2044
      9 C         142.6195  142.2856  166.0301 C.3     1  UNL1        0.0291
     10 C         141.4179  143.0159  165.5075 C.3     1  UNL1        0.1080
     11 C         139.9960  143.4732  165.3702 C.3     1  UNL1        0.0388
     12 C         139.6260  144.4627  164.3053 C.3     1  UNL1        0.0671
     13 S         140.6780  144.9948  163.3777 S.3     1  UNL1       -0.0807
     14 C         142.0999  144.5374  163.5151 C.2     1  UNL1        0.1482
     15 N         143.1518  145.0695  162.5875 N.pl3   1  UNL1       -0.3380
     16 N         142.4699  143.5479  164.5800 N.2     1  UNL1       -0.2509
     17 H         142.9090  145.7189  161.8886 H       1  UNL1        0.1442
     18 H         144.0851  144.7693  162.6777 H       1  UNL1        0.1442
     19 C         139.9864  142.6080  170.4860 C.3     1  UNL1        0.0981
     20 N         141.0695  142.3244  171.4842 N.3     1  UNL1       -0.2866
     21 H         140.6264  141.8555  172.2743 H       1  UNL1        0.1238
     22 C         142.2511  141.4880  171.0916 C.3     1  UNL1        0.1734
     23 C         143.2916  142.0470  170.1670 C.3     1  UNL1        0.4118
     24 F         144.3322  142.6060  169.2425 F       1  UNL1       -0.1685
     25 F         143.3251  140.7473  169.4189 F       1  UNL1       -0.1685
     26 F         143.2582  143.3467  170.9152 F       1  UNL1       -0.1685
@<TRIPOS>BOND
     1    10     9    1
     2    10     1    1
     3     1     2   ar
     4     2     3   ar
     5     3    19    1
     6    19    20    1
     7    20    22    1
     8    22    23    1
     9    23    24    1
    10    23    25    1
    11    23    26    1
    12     3     4   ar
    13     4     5    1
    14     4     6   ar
    15     6     7   ar
    16     7     8    1
    17    10    11    1
    18    11    12    1
    19    12    13    1
    20    13    14    1
    21    14    15    1
    22    14    16    2
    23    16    10    1
    24     7     1   ar
    25    20    21    1
    26    15    17    1
    27    15    18    1
@<TRIPOS>MOLECULE
*****
 26 27 0 0 0
SMALL
GASTEIGER

@<TRIPOS>ATOM
      1 C         140.3412  142.1484  166.4626 C.ar    1  UNL1        0.0252
      2 C         139.8194  143.3599  165.7485 C.ar    1  UNL1       -0.0009
      3 C         138.6965  143.2241  164.7634 C.ar    1  UNL1        0.0210
      4 C         138.0954  141.8768  164.4923 C.ar    1  UNL1        0.1397
      5 F         136.9724  141.7410  163.5071 F       1  UNL1       -0.2044
      6 C         138.6172  140.6653  165.2064 C.ar    1  UNL1        0.0587
      7 C         139.7401  140.8011  166.1916 C.ar    1  UNL1        0.1401
      8 F         140.2619  139.5896  166.9057 F       1  UNL1       -0.2044
      9 C         142.2473  142.0360  166.1928 C.3     1  UNL1        0.0291
     10 C         141.4641  142.2842  167.4479 C.3     1  UNL1        0.1080
     11 C         140.2910  142.4852  168.3607 C.3     1  UNL1        0.0388
     12 C         140.5128  142.7358  169.8229 C.3     1  UNL1        0.0671
     13 S         141.9078  142.7853  170.3722 S.3     1  UNL1       -0.0807
     14 C         143.0809  142.5843  169.4594 C.2     1  UNL1        0.1482
     15 N         144.4758  142.6339  170.0087 N.pl3   1  UNL1       -0.3380
     16 N         142.8591  142.3337  167.9972 N.2     1  UNL1       -0.2509
     17 H         144.6214  142.7984  170.9683 H       1  UNL1        0.1442
     18 H         145.2458  142.5019  169.4095 H       1  UNL1        0.1442
     19 C         138.1746  144.4356  164.0492 C.3     1  UNL1        0.0981
     20 N         138.3567  144.5684  162.5662 N.3     1  UNL1       -0.2866
     21 H         137.9872  145.4826  162.3049 H       1  UNL1        0.1238
     22 C         139.7281  144.4683  161.9670 C.3     1  UNL1        0.1734
     23 C         140.8926  145.1278  162.6445 C.3     1  UNL1        0.4118
     24 F         142.0571  145.7873  163.3220 F       1  UNL1       -0.1685
     25 F         141.4760  143.7808  162.9530 F       1  UNL1       -0.1685
     26 F         140.3091  146.4748  162.3361 F       1  UNL1       -0.1685
@<TRIPOS>BOND
     1    10     9    1
     2    10     1    1
     3     1     2   ar
     4     2     3   ar
     5     3    19    1
     6    19    20    1
     7    20    22    1
     8    22    23    1
     9    23    24    1
    10    23    25    1
    11    23    26    1
    12     3     4   ar
    13     4     5    1
    14     4     6   ar
    15     6     7   ar
    16     7     8    1
    17    10    11    1
    18    11    12    1
    19    12    13    1
    20    13    14    1
    21    14    15    1
    22    14    16    2
    23    16    10    1
    24     7     1   ar
    25    20    21    1
    26    15    17    1
    27    15    18    1
@<TRIPOS>MOLECULE
*****
 26 27 0 0 0
SMALL
GASTEIGER

@<TRIPOS>ATOM
      1 C         139.6795  140.5332  166.0614 C.ar    1  UNL1        0.0252
      2 C         139.3804  140.0045  167.4329 C.ar    1  UNL1       -0.0009
      3 C         139.7260  140.8205  168.6431 C.ar    1  UNL1        0.0210
      4 C         140.3708  142.1652  168.4818 C.ar    1  UNL1        0.1397
      5 F         140.7165  142.9812  169.6922 F       1  UNL1       -0.2044
      6 C         140.6699  142.6939  167.1104 C.ar    1  UNL1        0.0587
      7 C         140.3243  141.8780  165.9002 C.ar    1  UNL1        0.1401
      8 F         140.6234  142.4067  164.5287 F       1  UNL1       -0.2044
      9 C         138.1079  140.5765  164.9448 C.3     1  UNL1        0.0291
     10 C         139.3338  139.7173  164.8511 C.3     1  UNL1        0.1080
     11 C         140.6798  139.1414  165.1777 C.3     1  UNL1        0.0388
     12 C         141.2544  138.0480  164.3266 C.3     1  UNL1        0.0671
     13 S         140.4829  137.5305  163.1489 S.3     1  UNL1       -0.0807
     14 C         139.1369  138.1064  162.8223 C.2     1  UNL1        0.1482
     15 N         138.3655  137.5888  161.6445 N.pl3   1  UNL1       -0.3380
     16 N         138.5624  139.1997  163.6733 N.2     1  UNL1       -0.2509
     17 H         138.7426  136.8712  161.0859 H       1  UNL1        0.1442
     18 H         137.4820  137.9668  161.4301 H       1  UNL1        0.1442
     19 C         139.4269  140.2917  170.0146 C.3     1  UNL1        0.0981
     20 N         140.4677  139.5107  170.7608 N.3     1  UNL1       -0.2866
     21 H         140.0631  138.5957  170.9592 H       1  UNL1        0.1238
     22 C         141.8102  139.2649  170.1385 C.3     1  UNL1        0.1734
     23 C         142.8354  140.3595  170.1099 C.3     1  UNL1        0.4118
     24 F         143.8606  141.4541  170.0813 F       1  UNL1       -0.1685
     25 F         142.5547  140.6601  171.5524 F       1  UNL1       -0.1685
     26 F         143.1160  140.0589  168.6674 F       1  UNL1       -0.1685
@<TRIPOS>BOND
     1    10     9    1
     2    10     1    1
     3     1     2   ar
     4     2     3   ar
     5     3    19    1
     6    19    20    1
     7    20    22    1
     8    22    23    1
     9    23    24    1
    10    23    25    1
    11    23    26    1
    12     3     4   ar
    13     4     5    1
    14     4     6   ar
    15     6     7   ar
    16     7     8    1
    17    10    11    1
    18    11    12    1
    19    12    13    1
    20    13    14    1
    21    14    15    1
    22    14    16    2
    23    16    10    1
    24     7     1   ar
    25    20    21    1
    26    15    17    1
    27    15    18    1
@<TRIPOS>MOLECULE
*****
 26 27 0 0 0
SMALL
GASTEIGER

@<TRIPOS>ATOM
      1 C         141.9521  139.5153  166.0905 C.ar    1  UNL1        0.0252
      2 C         142.6387  139.2614  167.3998 C.ar    1  UNL1       -0.0009
      3 C         141.9249  139.5447  168.6882 C.ar    1  UNL1        0.0210
      4 C         140.5245  140.0819  168.6675 C.ar    1  UNL1        0.1397
      5 F         139.8107  140.3652  169.9560 F       1  UNL1       -0.2044
      6 C         139.8380  140.3359  167.3583 C.ar    1  UNL1        0.0587
      7 C         140.5518  140.0526  166.0698 C.ar    1  UNL1        0.1401
      8 F         139.8652  140.3065  164.7605 F       1  UNL1       -0.2044
      9 C         141.9126  137.9459  164.9707 C.3     1  UNL1        0.0291
     10 C         142.6659  139.2320  164.8020 C.3     1  UNL1        0.1080
     11 C         143.1712  140.6165  165.0807 C.3     1  UNL1        0.0388
     12 C         144.1288  141.2711  164.1296 C.3     1  UNL1        0.0671
     13 S         144.5809  140.5411  162.8996 S.3     1  UNL1       -0.0807
     14 C         144.0756  139.1566  162.6209 C.2     1  UNL1        0.1482
     15 N         144.5277  138.4266  161.3910 N.pl3   1  UNL1       -0.3380
     16 N         143.1181  138.5020  163.5720 N.2     1  UNL1       -0.2509
     17 H         145.1562  138.8562  160.7667 H       1  UNL1        0.1442
     18 H         144.1960  137.5179  161.2080 H       1  UNL1        0.1442
     19 C         142.6114  139.2908  169.9976 C.3     1  UNL1        0.0981
     20 N         143.3792  140.3914  170.6677 N.3     1  UNL1       -0.2866
     21 H         144.2996  140.0137  170.8925 H       1  UNL1        0.1238
     22 C         143.6070  141.6901  169.9524 C.3     1  UNL1        0.1734
     23 C         142.5211  142.7241  169.9112 C.3     1  UNL1        0.4118
     24 F         141.4353  143.7581  169.8701 F       1  UNL1       -0.1685
     25 F         142.3308  142.5833  171.3924 F       1  UNL1       -0.1685
     26 F         142.7114  142.8649  168.4300 F       1  UNL1       -0.1685
@<TRIPOS>BOND
     1    10     9    1
     2    10     1    1
     3     1     2   ar
     4     2     3   ar
     5     3    19    1
     6    19    20    1
     7    20    22    1
     8    22    23    1
     9    23    24    1
    10    23    25    1
    11    23    26    1
    12     3     4   ar
    13     4     5    1
    14     4     6   ar
    15     6     7   ar
    16     7     8    1
    17    10    11    1
    18    11    12    1
    19    12    13    1
    20    13    14    1
    21    14    15    1
    22    14    16    2
    23    16    10    1
    24     7     1   ar
    25    20    21    1
    26    15    17    1
    27    15    18    1
@<TRIPOS>MOLECULE
*****
 26 27 0 0 0
SMALL
GASTEIGER

@<TRIPOS>ATOM
      1 C         141.7010  139.8634  166.4253 C.ar    1  UNL1        0.0252
      2 C         140.3494  140.2681  165.9160 C.ar    1  UNL1       -0.0009
      3 C         139.6728  139.4523  164.8546 C.ar    1  UNL1        0.0210
      4 C         140.3478  138.2318  164.3024 C.ar    1  UNL1        0.1397
      5 F         139.6711  137.4161  163.2409 F       1  UNL1       -0.2044
      6 C         141.6994  137.8272  164.8117 C.ar    1  UNL1        0.0587
      7 C         142.3760  138.6429  165.8731 C.ar    1  UNL1        0.1401
      8 F         143.7277  138.2383  166.3824 F       1  UNL1       -0.2044
      9 C         142.8261  141.4211  166.2626 C.3     1  UNL1        0.0291
     10 C         142.3777  140.6792  167.4867 C.3     1  UNL1        0.1080
     11 C         141.6943  139.6540  168.3422 C.3     1  UNL1        0.0388
     12 C         141.8433  139.7022  169.8340 C.3     1  UNL1        0.0671
     13 S         142.6757  140.7757  170.4703 S.3     1  UNL1       -0.0807
     14 C         143.3591  141.8008  169.6148 C.2     1  UNL1        0.1482
     15 N         144.1915  142.8743  170.2511 N.pl3   1  UNL1       -0.3380
     16 N         143.2101  141.7526  168.1230 N.2     1  UNL1       -0.2509
     17 H         144.2893  142.9060  171.2302 H       1  UNL1        0.1442
     18 H         144.6401  143.5472  169.6896 H       1  UNL1        0.1442
     19 C         138.3211  139.8570  164.3453 C.3     1  UNL1        0.0981
     20 N         137.7331  141.1774  164.7461 N.3     1  UNL1       -0.2866
     21 H         138.1401  141.4189  165.6497 H       1  UNL1        0.1238
     22 C         137.9052  142.3751  163.8597 C.3     1  UNL1        0.1734
     23 C         138.1436  143.7272  164.4639 C.3     1  UNL1        0.4118
     24 F         138.3820  145.0793  165.0680 F       1  UNL1       -0.1685
     25 F         137.2832  144.3517  163.4057 F       1  UNL1       -0.1685
     26 F         139.0041  143.1028  165.5220 F       1  UNL1       -0.1685
@<TRIPOS>BOND
     1    10     9    1
     2    10     1    1
     3     1     2   ar
     4     2     3   ar
     5     3    19    1
     6    19    20    1
     7    20    22    1
     8    22    23    1
     9    23    24    1
    10    23    25    1
    11    23    26    1
    12     3     4   ar
    13     4     5    1
    14     4     6   ar
    15     6     7   ar
    16     7     8    1
    17    10    11    1
    18    11    12    1
    19    12    13    1
    20    13    14    1
    21    14    15    1
    22    14    16    2
    23    16    10    1
    24     7     1   ar
    25    20    21    1
    26    15    17    1
    27    15    18    1
@<TRIPOS>MOLECULE
*****
 26 27 0 0 0
SMALL
GASTEIGER

@<TRIPOS>ATOM
      1 C         142.6131  141.4870  166.5107 C.ar    1  UNL1        0.0252
      2 C         143.6484  142.2000  165.6924 C.ar    1  UNL1       -0.0009
      3 C         144.3813  141.4682  164.6074 C.ar    1  UNL1        0.0210
      4 C         144.0789  140.0234  164.3407 C.ar    1  UNL1        0.1397
      5 F         144.8118  139.2916  163.2557 F       1  UNL1       -0.2044
      6 C         143.0435  139.3104  165.1590 C.ar    1  UNL1        0.0587
      7 C         142.3106  140.0422  166.2440 C.ar    1  UNL1        0.1401
      8 F         141.2752  139.3293  167.0624 F       1  UNL1       -0.2044
      9 C         140.8862  142.3448  166.4793 C.3     1  UNL1        0.0291
     10 C         141.8801  142.2188  167.5958 C.3     1  UNL1        0.1080
     11 C         143.1284  141.8387  168.3354 C.3     1  UNL1        0.0388
     12 C         143.2987  142.2341  169.7723 C.3     1  UNL1        0.0671
     13 S         142.2206  143.0097  170.4695 S.3     1  UNL1       -0.0807
     14 C         140.9722  143.3898  169.7300 C.2     1  UNL1        0.1482
     15 N         139.8941  144.1654  170.4273 N.pl3   1  UNL1       -0.3380
     16 N         140.8019  142.9944  168.2931 N.2     1  UNL1       -0.2509
     17 H         140.0058  144.4249  171.3703 H       1  UNL1        0.1442
     18 H         139.0747  144.4148  169.9418 H       1  UNL1        0.1442
     19 C         145.4167  142.1812  163.7890 C.3     1  UNL1        0.0981
     20 N         145.1122  142.5780  162.3749 N.3     1  UNL1       -0.2866
     21 H         145.1663  141.7287  161.8126 H       1  UNL1        0.1238
     22 C         143.8039  143.2333  162.0449 C.3     1  UNL1        0.1734
     23 C         143.2941  144.3599  162.8940 C.3     1  UNL1        0.4118
     24 F         142.7843  145.4864  163.7431 F       1  UNL1       -0.1685
     25 F         144.5562  145.1274  162.6334 F       1  UNL1       -0.1685
     26 F         142.0320  143.5923  163.1546 F       1  UNL1       -0.1685
@<TRIPOS>BOND
     1    10     9    1
     2    10     1    1
     3     1     2   ar
     4     2     3   ar
     5     3    19    1
     6    19    20    1
     7    20    22    1
     8    22    23    1
     9    23    24    1
    10    23    25    1
    11    23    26    1
    12     3     4   ar
    13     4     5    1
    14     4     6   ar
    15     6     7   ar
    16     7     8    1
    17    10    11    1
    18    11    12    1
    19    12    13    1
    20    13    14    1
    21    14    15    1
    22    14    16    2
    23    16    10    1
    24     7     1   ar
    25    20    21    1
    26    15    17    1
    27    15    18    1
@<TRIPOS>MOLECULE
*****
 26 27 0 0 0
SMALL
GASTEIGER

@<TRIPOS>ATOM
      1 C         139.9812  141.0674  166.6156 C.ar    1  UNL1        0.0252
      2 C         140.0548  142.5422  166.3516 C.ar    1  UNL1       -0.0009
      3 C         139.2028  143.1558  165.2804 C.ar    1  UNL1        0.0210
      4 C         138.2772  142.2946  164.4732 C.ar    1  UNL1        0.1397
      5 F         137.4251  142.9083  163.4019 F       1  UNL1       -0.2044
      6 C         138.2036  140.8199  164.7371 C.ar    1  UNL1        0.0587
      7 C         139.0557  140.2063  165.8083 C.ar    1  UNL1        0.1401
      8 F         138.9821  138.7315  166.0723 F       1  UNL1       -0.2044
      9 C         141.7394  140.2830  166.5036 C.3     1  UNL1        0.0291
     10 C         140.8333  140.4538  167.6868 C.3     1  UNL1        0.1080
     11 C         139.6314  140.8376  168.4980 C.3     1  UNL1        0.0388
     12 C         139.5962  140.5485  169.9694 C.3     1  UNL1        0.0671
     13 S         140.7629  139.8756  170.6297 S.3     1  UNL1       -0.0807
     14 C         141.9648  139.4918  169.8185 C.2     1  UNL1        0.1482
     15 N         143.1315  138.8188  170.4788 N.pl3   1  UNL1       -0.3380
     16 N         142.0000  139.7808  168.3471 N.2     1  UNL1       -0.2509
     17 H         143.1084  138.6291  171.4446 H       1  UNL1        0.1442
     18 H         143.9204  138.5669  169.9464 H       1  UNL1        0.1442
     19 C         139.2763  144.6306  165.0165 C.3     1  UNL1        0.0981
     20 N         140.1916  145.1570  163.9510 N.3     1  UNL1       -0.2866
     21 H         140.6485  145.9832  164.3372 H       1  UNL1        0.1238
     22 C         141.2761  144.2828  163.3947 C.3     1  UNL1        0.1734
     23 C         142.5923  144.1761  164.1061 C.3     1  UNL1        0.4118
     24 F         143.9086  144.0694  164.8174 F       1  UNL1       -0.1685
     25 F         142.6885  145.6723  164.1526 F       1  UNL1       -0.1685
     26 F         142.4962  142.6799  164.0596 F       1  UNL1       -0.1685
@<TRIPOS>BOND
     1    10     9    1
     2    10     1    1
     3     1     2   ar
     4     2     3   ar
     5     3    19    1
     6    19    20    1
     7    20    22    1
     8    22    23    1
     9    23    24    1
    10    23    25    1
    11    23    26    1
    12     3     4   ar
    13     4     5    1
    14     4     6   ar
    15     6     7   ar
    16     7     8    1
    17    10    11    1
    18    11    12    1
    19    12    13    1
    20    13    14    1
    21    14    15    1
    22    14    16    2
    23    16    10    1
    24     7     1   ar
    25    20    21    1
    26    15    17    1
    27    15    18    1
