@<TRIPOS>MOLECULE
*****
 30 34 0 0 0
SMALL
GASTEIGER

@<TRIPOS>ATOM
      1 N         138.5812  138.6820  162.8366 N.3     1  UNL1       -0.2724
      2 C         139.1028  137.6443  163.7859 C.3     1  UNL1        0.0725
      3 C         139.1521  137.9312  165.2574 C.3     1  UNL1        0.0234
      4 C         138.6799  139.2557  165.7796 C.3     1  UNL1        0.0464
      5 C         138.1583  140.2933  164.8303 C.3     1  UNL1        0.0234
      6 C         138.1090  140.0065  163.3588 C.3     1  UNL1        0.0725
      7 C         138.7292  139.5425  167.2511 C.ar    1  UNL1        0.1003
      8 N         137.8075  138.9774  168.2909 N.ar    1  UNL1       -0.0814
      9 O         138.2176  139.5305  169.6236 O.2     1  UNL1       -0.3536
     10 C         139.3927  140.4373  169.4074 C.ar    1  UNL1        0.1787
     11 C         140.2157  141.2573  170.3563 C.ar    1  UNL1        0.0698
     12 C         141.3549  142.0846  169.8389 C.ar    1  UNL1        0.1433
     13 F         142.1779  142.9046  170.7878 F       1  UNL1       -0.2041
     14 C         141.6711  142.0921  168.3726 C.ar    1  UNL1        0.0299
     15 C         140.8481  141.2721  167.4238 C.ar    1  UNL1        0.0067
     16 C         139.7089  140.4448  167.9412 C.ar    1  UNL1        0.0540
     17 C         138.5319  138.3952  161.3651 C.3     1  UNL1        0.0770
     18 C         139.7124  138.7185  160.4981 C.3     1  UNL1        0.0497
     19 C         139.4504  141.6446  159.8901 C.3     1  UNL1        0.0520
     20 C         140.6254  141.1443  160.6770 C.ar    1  UNL1        0.0613
     21 N         141.6694  142.1071  161.1599 N.ar    1  UNL1       -0.2368
     22 C         142.8444  141.6068  161.9468 C.ar    1  UNL1        0.1220
     23 N         142.9754  140.1438  162.2507 N.ar    1  UNL1       -0.2843
     24 C         141.9314  139.1810  161.7678 C.ar    1  UNL1        0.2588
     25 O         142.0624  137.7180  162.0718 O.2     1  UNL1       -0.2673
     26 C         140.7564  139.6813  160.9810 C.ar    1  UNL1        0.0489
     27 C         144.1504  139.6436  163.0376 C.3     1  UNL1        0.1102
     28 C         145.1943  140.6063  163.5205 C.3     1  UNL1        0.0251
     29 C         145.0633  142.0693  163.2165 C.3     1  UNL1        0.0099
     30 C         143.8884  142.5696  162.4296 C.3     1  UNL1        0.0641
@<TRIPOS>BOND
     1    19    20    1
     2    20    21   ar
     3    21    22   ar
     4    22    23   ar
     5    23    24   ar
     6    24    25    2
     7    24    26   ar
     8    26    18    1
     9    18    17    1
    10    17     1    1
    11     1     2    1
    12     2     3    1
    13     3     4    1
    14     4     7    1
    15     7     8   ar
    16     8     9   ar
    17     9    10   ar
    18    10    11   ar
    19    11    12   ar
    20    12    13    1
    21    12    14   ar
    22    14    15   ar
    23    15    16   ar
    24     4     5    1
    25     5     6    1
    26    23    27    1
    27    27    28    1
    28    28    29    1
    29    29    30    1
    30    26    20   ar
    31     6     1    1
    32    30    22    1
    33    16     7   ar
    34    16    10   ar
@<TRIPOS>MOLECULE
*****
 30 34 0 0 0
SMALL
GASTEIGER

@<TRIPOS>ATOM
      1 N         139.7876  138.5039  162.1445 N.3     1  UNL1       -0.2724
      2 C         140.3646  137.5895  163.1843 C.3     1  UNL1        0.0725
      3 C         139.9486  137.7278  164.6188 C.3     1  UNL1        0.0234
      4 C         138.9555  138.7805  165.0135 C.3     1  UNL1        0.0464
      5 C         138.3785  139.6948  163.9739 C.3     1  UNL1        0.0234
      6 C         138.7946  139.5565  162.5393 C.3     1  UNL1        0.0725
      7 C         138.5395  138.9188  166.4480 C.ar    1  UNL1        0.1003
      8 N         137.4194  138.1782  167.1165 N.ar    1  UNL1       -0.0814
      9 O         137.3581  138.6237  168.5476 O.2     1  UNL1       -0.3536
     10 C         138.4405  139.6396  168.7635 C.ar    1  UNL1        0.1787
     11 C         138.8555  140.4221  169.9740 C.ar    1  UNL1        0.0698
     12 C         140.0006  141.3870  169.8870 C.ar    1  UNL1        0.1433
     13 F         140.4157  142.1695  171.0975 F       1  UNL1       -0.2041
     14 C         140.7308  141.5694  168.5894 C.ar    1  UNL1        0.0299
     15 C         140.3157  140.7869  167.3789 C.ar    1  UNL1        0.0067
     16 C         139.1706  139.8219  167.4660 C.ar    1  UNL1        0.0540
     17 C         140.2036  138.3656  160.7101 C.3     1  UNL1        0.0770
     18 C         141.3905  139.1257  160.1968 C.3     1  UNL1        0.0497
     19 C         143.7989  138.1175  161.6745 C.3     1  UNL1        0.0520
     20 C         143.3512  139.5383  161.8508 C.ar    1  UNL1        0.0613
     21 N         144.1077  140.4550  162.7658 N.ar    1  UNL1       -0.2368
     22 C         143.6600  141.8758  162.9421 C.ar    1  UNL1        0.1220
     23 N         142.4559  142.3799  162.2033 N.ar    1  UNL1       -0.2843
     24 C         141.6994  141.4631  161.2882 C.ar    1  UNL1        0.2588
     25 O         140.4952  141.9672  160.5493 O.2     1  UNL1       -0.2673
     26 C         142.1470  140.0424  161.1119 C.ar    1  UNL1        0.0489
     27 C         142.0082  143.8006  162.3795 C.3     1  UNL1        0.1102
     28 C         142.7647  144.7172  163.2946 C.3     1  UNL1        0.0251
     29 C         143.9689  144.2132  164.0334 C.3     1  UNL1        0.0099
     30 C         144.4165  142.7925  163.8572 C.3     1  UNL1        0.0641
@<TRIPOS>BOND
     1    19    20    1
     2    20    21   ar
     3    21    22   ar
     4    22    23   ar
     5    23    24   ar
     6    24    25    2
     7    24    26   ar
     8    26    18    1
     9    18    17    1
    10    17     1    1
    11     1     2    1
    12     2     3    1
    13     3     4    1
    14     4     7    1
    15     7     8   ar
    16     8     9   ar
    17     9    10   ar
    18    10    11   ar
    19    11    12   ar
    20    12    13    1
    21    12    14   ar
    22    14    15   ar
    23    15    16   ar
    24     4     5    1
    25     5     6    1
    26    23    27    1
    27    27    28    1
    28    28    29    1
    29    29    30    1
    30    26    20   ar
    31     6     1    1
    32    30    22    1
    33    16     7   ar
    34    16    10   ar
@<TRIPOS>MOLECULE
*****
 30 34 0 0 0
SMALL
GASTEIGER

@<TRIPOS>ATOM
      1 N         139.7753  138.4026  163.9837 N.3     1  UNL1       -0.2724
      2 C         138.5249  138.9745  164.5834 C.3     1  UNL1        0.0725
      3 C         138.5502  139.5411  165.9719 C.3     1  UNL1        0.0234
      4 C         139.8259  139.5359  166.7609 C.3     1  UNL1        0.0464
      5 C         141.0763  138.9641  166.1614 C.3     1  UNL1        0.0234
      6 C         141.0510  138.3974  164.7727 C.3     1  UNL1        0.0725
      7 C         139.8513  140.1026  168.1495 C.ar    1  UNL1        0.1003
      8 N         138.8364  139.8481  169.2244 N.ar    1  UNL1       -0.0814
      9 O         139.2539  140.6115  170.4463 O.2     1  UNL1       -0.3536
     10 C         140.5268  141.3379  170.1266 C.ar    1  UNL1        0.1787
     11 C         141.3974  142.2451  170.9446 C.ar    1  UNL1        0.0698
     12 C         142.6371  142.8377  170.3432 C.ar    1  UNL1        0.1433
     13 F         143.5077  143.7449  171.1612 F       1  UNL1       -0.2041
     14 C         143.0064  142.5232  168.9237 C.ar    1  UNL1        0.0299
     15 C         142.1358  141.6161  168.1057 C.ar    1  UNL1        0.0067
     16 C         140.8960  141.0234  168.7072 C.ar    1  UNL1        0.0540
     17 C         139.7499  137.8359  162.5951 C.3     1  UNL1        0.0770
     18 C         140.1074  138.7031  161.4246 C.3     1  UNL1        0.0497
     19 C         138.1679  140.9918  161.4249 C.3     1  UNL1        0.0520
     20 C         139.6288  141.2467  161.6503 C.ar    1  UNL1        0.0613
     21 N         140.1200  142.6460  161.8758 N.ar    1  UNL1       -0.2368
     22 C         141.5809  142.9009  162.1012 C.ar    1  UNL1        0.1220
     23 N         142.5507  141.7565  162.1010 N.ar    1  UNL1       -0.2843
     24 C         142.0595  140.3572  161.8755 C.ar    1  UNL1        0.2588
     25 O         143.0292  139.2128  161.8754 O.2     1  UNL1       -0.2673
     26 C         140.5986  140.1024  161.6501 C.ar    1  UNL1        0.0489
     27 C         144.0115  142.0114  162.3264 C.3     1  UNL1        0.1102
     28 C         144.5027  143.4106  162.5519 C.3     1  UNL1        0.0251
     29 C         143.5329  144.5550  162.5521 C.3     1  UNL1        0.0099
     30 C         142.0721  144.3001  162.3267 C.3     1  UNL1        0.0641
@<TRIPOS>BOND
     1    19    20    1
     2    20    21   ar
     3    21    22   ar
     4    22    23   ar
     5    23    24   ar
     6    24    25    2
     7    24    26   ar
     8    26    18    1
     9    18    17    1
    10    17     1    1
    11     1     2    1
    12     2     3    1
    13     3     4    1
    14     4     7    1
    15     7     8   ar
    16     8     9   ar
    17     9    10   ar
    18    10    11   ar
    19    11    12   ar
    20    12    13    1
    21    12    14   ar
    22    14    15   ar
    23    15    16   ar
    24     4     5    1
    25     5     6    1
    26    23    27    1
    27    27    28    1
    28    28    29    1
    29    29    30    1
    30    26    20   ar
    31     6     1    1
    32    30    22    1
    33    16     7   ar
    34    16    10   ar
@<TRIPOS>MOLECULE
*****
 30 34 0 0 0
SMALL
GASTEIGER

@<TRIPOS>ATOM
      1 N         143.3806  138.9897  162.7337 N.3     1  UNL1       -0.2724
      2 C         144.4123  139.6592  163.5925 C.3     1  UNL1        0.0725
      3 C         144.2043  139.7590  165.0746 C.3     1  UNL1        0.0234
      4 C         142.9645  139.1895  165.6980 C.3     1  UNL1        0.0464
      5 C         141.9328  138.5200  164.8393 C.3     1  UNL1        0.0234
      6 C         142.1408  138.4202  163.3571 C.3     1  UNL1        0.0725
      7 C         142.7565  139.2893  167.1801 C.ar    1  UNL1        0.1003
      8 N         143.3500  138.3822  168.2169 N.ar    1  UNL1       -0.0814
      9 O         142.8787  138.8461  169.5633 O.2     1  UNL1       -0.3536
     10 C         141.9939  140.0400  169.3586 C.ar    1  UNL1        0.1787
     11 C         141.2473  140.9131  170.3231 C.ar    1  UNL1        0.0698
     12 C         140.4252  142.0601  169.8148 C.ar    1  UNL1        0.1433
     13 F         139.6786  142.9331  170.7793 F       1  UNL1       -0.2041
     14 C         140.3496  142.3340  168.3419 C.ar    1  UNL1        0.0299
     15 C         141.0962  141.4610  167.3774 C.ar    1  UNL1        0.0067
     16 C         141.9184  140.3139  167.8858 C.ar    1  UNL1        0.0540
     17 C         143.5886  138.8899  161.2516 C.3     1  UNL1        0.0770
     18 C         143.2216  140.0416  160.3635 C.3     1  UNL1        0.0497
     19 C         144.7619  142.5056  161.1092 C.3     1  UNL1        0.0520
     20 C         143.2755  142.4619  161.3065 C.ar    1  UNL1        0.0613
     21 N         142.5594  143.6502  161.8767 N.ar    1  UNL1       -0.2368
     22 C         141.0731  143.6064  162.0741 C.ar    1  UNL1        0.1220
     23 N         140.3029  142.3744  161.7013 N.ar    1  UNL1       -0.2843
     24 C         141.0191  141.1861  161.1311 C.ar    1  UNL1        0.2588
     25 O         140.2489  139.9541  160.7582 O.2     1  UNL1       -0.2673
     26 C         142.5054  141.2299  160.9337 C.ar    1  UNL1        0.0489
     27 C         138.8166  142.3307  161.8987 C.3     1  UNL1        0.1102
     28 C         138.1005  143.5189  162.4689 C.3     1  UNL1        0.0251
     29 C         138.8707  144.7510  162.8417 C.3     1  UNL1        0.0099
     30 C         140.3569  144.7947  162.6443 C.3     1  UNL1        0.0641
@<TRIPOS>BOND
     1    19    20    1
     2    20    21   ar
     3    21    22   ar
     4    22    23   ar
     5    23    24   ar
     6    24    25    2
     7    24    26   ar
     8    26    18    1
     9    18    17    1
    10    17     1    1
    11     1     2    1
    12     2     3    1
    13     3     4    1
    14     4     7    1
    15     7     8   ar
    16     8     9   ar
    17     9    10   ar
    18    10    11   ar
    19    11    12   ar
    20    12    13    1
    21    12    14   ar
    22    14    15   ar
    23    15    16   ar
    24     4     5    1
    25     5     6    1
    26    23    27    1
    27    27    28    1
    28    28    29    1
    29    29    30    1
    30    26    20   ar
    31     6     1    1
    32    30    22    1
    33    16     7   ar
    34    16    10   ar
@<TRIPOS>MOLECULE
*****
 30 34 0 0 0
SMALL
GASTEIGER

@<TRIPOS>ATOM
      1 N         138.8788  138.9102  161.3735 N.3     1  UNL1       -0.2724
      2 C         139.7434  138.0438  162.2407 C.3     1  UNL1        0.0725
      3 C         139.6299  138.1267  163.7340 C.3     1  UNL1        0.0234
      4 C         138.6518  139.0759  164.3603 C.3     1  UNL1        0.0464
      5 C         137.7872  139.9423  163.4932 C.3     1  UNL1        0.0234
      6 C         137.9007  139.8594  161.9998 C.3     1  UNL1        0.0725
      7 C         138.5383  139.1588  165.8537 C.ar    1  UNL1        0.1003
      8 N         137.5923  138.3714  166.7111 N.ar    1  UNL1       -0.0814
      9 O         137.8202  138.7697  168.1393 O.2     1  UNL1       -0.3536
     10 C         138.9070  139.8033  168.1645 C.ar    1  UNL1        0.1787
     11 C         139.5499  140.5565  169.2911 C.ar    1  UNL1        0.0698
     12 C         140.6365  141.5501  169.0053 C.ar    1  UNL1        0.1433
     13 F         141.2794  142.3033  170.1320 F       1  UNL1       -0.2041
     14 C         141.0804  141.7907  167.5927 C.ar    1  UNL1        0.0299
     15 C         140.4375  141.0375  166.4661 C.ar    1  UNL1        0.0067
     16 C         139.3508  140.0438  166.7520 C.ar    1  UNL1        0.0540
     17 C         138.9923  138.8272  159.8801 C.3     1  UNL1        0.0770
     18 C         140.2499  139.2772  159.1975 C.3     1  UNL1        0.0497
     19 C         143.0442  138.5150  159.9790 C.3     1  UNL1        0.0520
     20 C         142.4265  137.9338  158.7418 C.ar    1  UNL1        0.0613
     21 N         143.2060  136.9715  157.8954 N.ar    1  UNL1       -0.2368
     22 C         142.5883  136.3903  156.6581 C.ar    1  UNL1        0.1220
     23 N         141.1911  136.7714  156.2674 N.ar    1  UNL1       -0.2843
     24 C         140.4117  137.7337  157.1138 C.ar    1  UNL1        0.2588
     25 O         139.0145  138.1148  156.7230 O.2     1  UNL1       -0.2673
     26 C         141.0294  138.3149  158.3510 C.ar    1  UNL1        0.0489
     27 C         140.5734  136.1902  155.0302 C.3     1  UNL1        0.1102
     28 C         141.3529  135.2280  154.1838 C.3     1  UNL1        0.0251
     29 C         142.7501  134.8469  154.5746 C.3     1  UNL1        0.0099
     30 C         143.3678  135.4280  155.8118 C.3     1  UNL1        0.0641
@<TRIPOS>BOND
     1    19    20    1
     2    20    21   ar
     3    21    22   ar
     4    22    23   ar
     5    23    24   ar
     6    24    25    2
     7    24    26   ar
     8    26    18    1
     9    18    17    1
    10    17     1    1
    11     1     2    1
    12     2     3    1
    13     3     4    1
    14     4     7    1
    15     7     8   ar
    16     8     9   ar
    17     9    10   ar
    18    10    11   ar
    19    11    12   ar
    20    12    13    1
    21    12    14   ar
    22    14    15   ar
    23    15    16   ar
    24     4     5    1
    25     5     6    1
    26    23    27    1
    27    27    28    1
    28    28    29    1
    29    29    30    1
    30    26    20   ar
    31     6     1    1
    32    30    22    1
    33    16     7   ar
    34    16    10   ar
@<TRIPOS>MOLECULE
*****
 30 34 0 0 0
SMALL
GASTEIGER

@<TRIPOS>ATOM
      1 N         138.8693  138.4278  162.9095 N.3     1  UNL1       -0.2724
      2 C         138.1434  139.6595  163.3637 C.3     1  UNL1        0.0725
      3 C         138.1975  140.0734  164.8044 C.3     1  UNL1        0.0234
      4 C         138.9775  139.2558  165.7909 C.3     1  UNL1        0.0464
      5 C         139.7033  138.0243  165.3368 C.3     1  UNL1        0.0234
      6 C         139.6492  137.6102  163.8960 C.3     1  UNL1        0.0725
      7 C         139.0315  139.6698  167.2316 C.ar    1  UNL1        0.1003
      8 N         138.1701  139.1331  168.3362 N.ar    1  UNL1       -0.0814
      9 O         138.5628  139.8248  169.6080 O.2     1  UNL1       -0.3536
     10 C         139.6669  140.7890  169.2895 C.ar    1  UNL1        0.1787
     11 C         140.4458  141.7418  170.1470 C.ar    1  UNL1        0.0698
     12 C         141.5144  142.5988  169.5359 C.ar    1  UNL1        0.1433
     13 F         142.2934  143.5517  170.3934 F       1  UNL1       -0.2041
     14 C         141.8042  142.5031  168.0672 C.ar    1  UNL1        0.0299
     15 C         141.0252  141.5503  167.2097 C.ar    1  UNL1        0.0067
     16 C         139.9566  140.6932  167.8208 C.ar    1  UNL1        0.0540
     17 C         138.8152  138.0138  161.4688 C.3     1  UNL1        0.0770
     18 C         139.9242  138.3997  160.5355 C.3     1  UNL1        0.0497
     19 C         142.4305  139.0365  162.0564 C.3     1  UNL1        0.0520
     20 C         141.7129  140.1192  161.3061 C.ar    1  UNL1        0.0613
     21 N         142.2485  141.5203  161.3164 N.ar    1  UNL1       -0.2368
     22 C         141.5309  142.6030  160.5661 C.ar    1  UNL1        0.1220
     23 N         140.2778  142.2847  159.8057 N.ar    1  UNL1       -0.2843
     24 C         139.7422  140.8835  159.7955 C.ar    1  UNL1        0.2588
     25 O         138.4891  140.5651  159.0350 O.2     1  UNL1       -0.2673
     26 C         140.4598  139.8008  160.5457 C.ar    1  UNL1        0.0489
     27 C         139.5602  143.3673  159.0555 C.3     1  UNL1        0.1102
     28 C         140.0957  144.7684  159.0657 C.3     1  UNL1        0.0251
     29 C         141.3489  145.0868  159.8262 C.3     1  UNL1        0.0099
     30 C         142.0665  144.0041  160.5764 C.3     1  UNL1        0.0641
@<TRIPOS>BOND
     1    19    20    1
     2    20    21   ar
     3    21    22   ar
     4    22    23   ar
     5    23    24   ar
     6    24    25    2
     7    24    26   ar
     8    26    18    1
     9    18    17    1
    10    17     1    1
    11     1     2    1
    12     2     3    1
    13     3     4    1
    14     4     7    1
    15     7     8   ar
    16     8     9   ar
    17     9    10   ar
    18    10    11   ar
    19    11    12   ar
    20    12    13    1
    21    12    14   ar
    22    14    15   ar
    23    15    16   ar
    24     4     5    1
    25     5     6    1
    26    23    27    1
    27    27    28    1
    28    28    29    1
    29    29    30    1
    30    26    20   ar
    31     6     1    1
    32    30    22    1
    33    16     7   ar
    34    16    10   ar
@<TRIPOS>MOLECULE
*****
 30 34 0 0 0
SMALL
GASTEIGER

@<TRIPOS>ATOM
      1 N         138.2640  143.0456  162.7583 N.3     1  UNL1       -0.2724
      2 C         137.6378  141.6829  162.7264 C.3     1  UNL1        0.0725
      3 C         137.8289  140.7975  161.5309 C.3     1  UNL1        0.0234
      4 C         138.6461  141.2747  160.3671 C.3     1  UNL1        0.0464
      5 C         139.2723  142.6373  160.3989 C.3     1  UNL1        0.0234
      6 C         139.0812  143.5228  161.5945 C.3     1  UNL1        0.0725
      7 C         138.8372  140.3892  159.1715 C.ar    1  UNL1        0.1003
      8 N         137.8574  140.1953  158.0523 N.ar    1  UNL1       -0.0814
      9 O         138.4563  139.2284  157.0742 O.2     1  UNL1       -0.3536
     10 C         139.8062  138.8248  157.5890 C.ar    1  UNL1        0.1787
     11 C         140.8515  137.8967  157.0449 C.ar    1  UNL1        0.0698
     12 C         142.1320  137.6859  157.7969 C.ar    1  UNL1        0.1433
     13 F         143.1773  136.7578  157.2528 F       1  UNL1       -0.2041
     14 C         142.3675  138.4033  159.0930 C.ar    1  UNL1        0.0299
     15 C         141.3222  139.3314  159.6371 C.ar    1  UNL1        0.0067
     16 C         140.0416  139.5422  158.8851 C.ar    1  UNL1        0.0540
     17 C         138.0729  143.9310  163.9538 C.3     1  UNL1        0.0770
     18 C         139.0661  143.8986  165.0775 C.3     1  UNL1        0.0497
     19 C         141.5797  145.0733  163.9366 C.3     1  UNL1        0.0520
     20 C         141.5590  143.6440  164.3915 C.ar    1  UNL1        0.0613
     21 N         142.7951  142.8022  164.2758 N.ar    1  UNL1       -0.2368
     22 C         142.7743  141.3729  164.7306 C.ar    1  UNL1        0.1220
     23 N         141.5175  140.7855  165.3011 N.ar    1  UNL1       -0.2843
     24 C         140.2814  141.6275  165.4167 C.ar    1  UNL1        0.2588
     25 O         139.0246  141.0401  165.9871 O.2     1  UNL1       -0.2673
     26 C         140.3022  143.0567  164.9619 C.ar    1  UNL1        0.0489
     27 C         141.4967  139.3563  165.7559 C.3     1  UNL1        0.1102
     28 C         142.7328  138.5145  165.6402 C.3     1  UNL1        0.0251
     29 C         143.9896  139.1018  165.0698 C.3     1  UNL1        0.0099
     30 C         144.0104  140.5310  164.6150 C.3     1  UNL1        0.0641
@<TRIPOS>BOND
     1    19    20    1
     2    20    21   ar
     3    21    22   ar
     4    22    23   ar
     5    23    24   ar
     6    24    25    2
     7    24    26   ar
     8    26    18    1
     9    18    17    1
    10    17     1    1
    11     1     2    1
    12     2     3    1
    13     3     4    1
    14     4     7    1
    15     7     8   ar
    16     8     9   ar
    17     9    10   ar
    18    10    11   ar
    19    11    12   ar
    20    12    13    1
    21    12    14   ar
    22    14    15   ar
    23    15    16   ar
    24     4     5    1
    25     5     6    1
    26    23    27    1
    27    27    28    1
    28    28    29    1
    29    29    30    1
    30    26    20   ar
    31     6     1    1
    32    30    22    1
    33    16     7   ar
    34    16    10   ar
@<TRIPOS>MOLECULE
*****
 30 34 0 0 0
SMALL
GASTEIGER

@<TRIPOS>ATOM
      1 N         140.0460  137.9837  162.3505 N.3     1  UNL1       -0.2724
      2 C         139.3939  138.4398  161.0789 C.3     1  UNL1        0.0725
      3 C         140.2166  138.6241  159.8383 C.3     1  UNL1        0.0234
      4 C         141.6915  138.3523  159.8692 C.3     1  UNL1        0.0464
      5 C         142.3436  137.8963  161.1407 C.3     1  UNL1        0.0234
      6 C         141.5208  137.7119  162.3814 C.3     1  UNL1        0.0725
      7 C         142.5142  138.5366  158.6286 C.ar    1  UNL1        0.1003
      8 N         143.7067  139.4355  158.4870 N.ar    1  UNL1       -0.0814
      9 O         144.2184  139.3088  157.0826 O.2     1  UNL1       -0.3536
     10 C         143.3422  138.3316  156.3563 C.ar    1  UNL1        0.1787
     11 C         143.3673  137.8147  154.9484 C.ar    1  UNL1        0.0698
     12 C         142.3392  136.8206  154.4960 C.ar    1  UNL1        0.1433
     13 F         142.3643  136.3037  153.0882 F       1  UNL1       -0.2041
     14 C         141.2859  136.3434  155.4515 C.ar    1  UNL1        0.0299
     15 C         141.2608  136.8603  156.8594 C.ar    1  UNL1        0.0067
     16 C         142.2889  137.8544  157.3118 C.ar    1  UNL1        0.0540
     17 C         139.2232  137.7994  163.5910 C.3     1  UNL1        0.0770
     18 C         138.6553  138.9939  164.2986 C.3     1  UNL1        0.0497
     19 C         137.5380  138.3187  166.9996 C.3     1  UNL1        0.0520
     20 C         138.7608  139.1802  166.8878 C.ar    1  UNL1        0.0613
     21 N         139.4250  139.7041  168.1265 N.ar    1  UNL1       -0.2368
     22 C         140.6478  140.5657  168.0147 C.ar    1  UNL1        0.1220
     23 N         141.2065  140.9033  166.6642 N.ar    1  UNL1       -0.2843
     24 C         140.5423  140.3793  165.4255 C.ar    1  UNL1        0.2588
     25 O         141.1009  140.7169  164.0749 O.2     1  UNL1       -0.2673
     26 C         139.3195  139.5178  165.5373 C.ar    1  UNL1        0.0489
     27 C         142.4293  141.7648  166.5523 C.3     1  UNL1        0.1102
     28 C         143.0934  142.2887  167.7910 C.3     1  UNL1        0.0251
     29 C         142.5348  141.9511  169.1416 C.3     1  UNL1        0.0099
     30 C         141.3120  141.0896  169.2534 C.3     1  UNL1        0.0641
@<TRIPOS>BOND
     1    19    20    1
     2    20    21   ar
     3    21    22   ar
     4    22    23   ar
     5    23    24   ar
     6    24    25    2
     7    24    26   ar
     8    26    18    1
     9    18    17    1
    10    17     1    1
    11     1     2    1
    12     2     3    1
    13     3     4    1
    14     4     7    1
    15     7     8   ar
    16     8     9   ar
    17     9    10   ar
    18    10    11   ar
    19    11    12   ar
    20    12    13    1
    21    12    14   ar
    22    14    15   ar
    23    15    16   ar
    24     4     5    1
    25     5     6    1
    26    23    27    1
    27    27    28    1
    28    28    29    1
    29    29    30    1
    30    26    20   ar
    31     6     1    1
    32    30    22    1
    33    16     7   ar
    34    16    10   ar
@<TRIPOS>MOLECULE
*****
 30 34 0 0 0
SMALL
GASTEIGER

@<TRIPOS>ATOM
      1 N         142.3013  138.8002  165.0344 N.3     1  UNL1       -0.2724
      2 C         141.4284  137.7387  164.4334 C.3     1  UNL1        0.0725
      3 C         141.4399  137.5085  162.9512 C.3     1  UNL1        0.0234
      4 C         142.3243  138.3399  162.0700 C.3     1  UNL1        0.0464
      5 C         143.1972  139.4015  162.6709 C.3     1  UNL1        0.0234
      6 C         143.1857  139.6316  164.1532 C.3     1  UNL1        0.0725
      7 C         142.3358  138.1098  160.5878 C.ar    1  UNL1        0.1003
      8 N         143.4080  137.4017  159.8138 N.ar    1  UNL1       -0.0814
      9 O         143.0119  137.4016  158.3669 O.2     1  UNL1       -0.3536
     10 C         141.6950  138.1097  158.2468 C.ar    1  UNL1        0.1787
     11 C         140.8224  138.4125  157.0650 C.ar    1  UNL1        0.0698
     12 C         139.5319  139.1529  157.2556 C.ar    1  UNL1        0.1433
     13 F         138.6593  139.4557  156.0737 F       1  UNL1       -0.2041
     14 C         139.1140  139.5906  158.6282 C.ar    1  UNL1        0.0299
     15 C         139.9866  139.2878  159.8100 C.ar    1  UNL1        0.0067
     16 C         141.2771  138.5474  159.6193 C.ar    1  UNL1        0.0540
     17 C         142.2898  139.0304  166.5166 C.3     1  UNL1        0.0770
     18 C         141.2358  139.9024  167.1319 C.3     1  UNL1        0.0497
     19 C         138.5018  138.8944  166.4183 C.3     1  UNL1        0.0520
     20 C         138.9710  140.2214  165.8994 C.ar    1  UNL1        0.0613
     21 N         138.0732  141.0443  165.0238 N.ar    1  UNL1       -0.2368
     22 C         138.5424  142.3713  164.5050 C.ar    1  UNL1        0.1220
     23 N         139.9094  142.8752  164.8618 N.ar    1  UNL1       -0.2843
     24 C         140.8072  142.0522  165.7375 C.ar    1  UNL1        0.2588
     25 O         142.1742  142.5562  166.0943 O.2     1  UNL1       -0.2673
     26 C         140.3380  140.7254  166.2563 C.ar    1  UNL1        0.0489
     27 C         140.3786  144.2021  164.3431 C.3     1  UNL1        0.1102
     28 C         139.4808  145.0250  163.4675 C.3     1  UNL1        0.0251
     29 C         138.1138  144.5211  163.1106 C.3     1  UNL1        0.0099
     30 C         137.6446  143.1942  163.6294 C.3     1  UNL1        0.0641
@<TRIPOS>BOND
     1    19    20    1
     2    20    21   ar
     3    21    22   ar
     4    22    23   ar
     5    23    24   ar
     6    24    25    2
     7    24    26   ar
     8    26    18    1
     9    18    17    1
    10    17     1    1
    11     1     2    1
    12     2     3    1
    13     3     4    1
    14     4     7    1
    15     7     8   ar
    16     8     9   ar
    17     9    10   ar
    18    10    11   ar
    19    11    12   ar
    20    12    13    1
    21    12    14   ar
    22    14    15   ar
    23    15    16   ar
    24     4     5    1
    25     5     6    1
    26    23    27    1
    27    27    28    1
    28    28    29    1
    29    29    30    1
    30    26    20   ar
    31     6     1    1
    32    30    22    1
    33    16     7   ar
    34    16    10   ar
