@<TRIPOS>MOLECULE
*****
 33 37 0 0 0
SMALL
GASTEIGER

@<TRIPOS>ATOM
      1 N         139.8924  137.8031  164.1302 N.3     1  UNL1       -0.2704
      2 C         139.4273  137.8131  162.7041 C.3     1  UNL1        0.0722
      3 C         140.4147  138.0239  161.5948 C.3     1  UNL1        0.0191
      4 C         141.8671  138.2246  161.9115 C.3     1  UNL1        0.0226
      5 C         142.3321  138.2146  163.3375 C.3     1  UNL1        0.0191
      6 C         141.3447  138.0038  164.4469 C.3     1  UNL1        0.0722
      7 C         143.3430  138.4376  162.0734 C.3     1  UNL1        0.0231
      8 C         143.9400  138.6041  160.7074 C.3     1  UNL1        0.0909
      9 N         142.8329  138.4940  159.7012 N.pl3   1  UNL1       -0.3063
     10 C         141.5518  138.2595  160.4453 C.3     1  UNL1        0.0909
     11 C         142.9810  138.5998  158.2123 C.ar    1  UNL1        0.0680
     12 C         143.2643  139.9298  157.5795 C.ar    1  UNL1        0.1134
     13 N         143.4124  140.0356  156.0905 N.ar    1  UNL1       -0.2403
     14 C         143.2772  138.8114  155.2345 C.ar    1  UNL1        0.1092
     15 C         142.9938  137.4812  155.8674 C.ar    1  UNL1        0.0888
     16 C         142.8458  137.3755  157.3563 C.ar    1  UNL1        0.0279
     17 C         142.8586  136.2569  155.0113 C.1     1  UNL1        0.1020
     18 N         142.7233  135.0326  154.1553 N.1     1  UNL1       -0.1908
     19 C         138.9050  137.5923  165.2396 C.3     1  UNL1        0.1063
     20 C         138.1771  138.7642  165.8285 C.3     1  UNL1        0.1483
     21 O         137.3149  138.5789  167.0419 O.3     1  UNL1       -0.3786
     22 H         136.9201  139.4292  167.2909 H       1  UNL1        0.2108
     23 C         140.0837  140.7681  166.9900 C.3     1  UNL1        0.0306
     24 C         139.2645  141.1233  165.7847 C.ar    1  UNL1       -0.0238
     25 C         138.3112  140.1214  165.2039 C.ar    1  UNL1        0.0015
     26 C         137.4921  140.4766  163.9986 C.ar    1  UNL1       -0.0020
     27 C         137.6262  141.8338  163.3740 C.ar    1  UNL1        0.0060
     28 C         138.5795  142.8357  163.9548 C.ar    1  UNL1        0.0748
     29 C         139.3987  142.4805  165.1601 C.ar    1  UNL1        0.0233
     30 C         140.2489  143.6661  165.5085 C.3     1  UNL1        0.2352
     31 O         139.9553  144.7541  164.5186 O.3     1  UNL1       -0.4404
     32 C         138.9236  144.2408  163.5583 C.2     1  UNL1        0.3413
     33 O         138.3385  144.9996  162.4042 O.2     1  UNL1       -0.2449
@<TRIPOS>BOND
     1    23    24    1
     2    24    25   ar
     3    25    20    1
     4    20    21    1
     5    20    19    1
     6    19     1    1
     7     1     2    1
     8     2     3    1
     9     3     4    1
    10     4     5    1
    11     5     6    1
    12     4     7    1
    13     7     8    1
    14     8     9    1
    15     9    11    1
    16    11    12   ar
    17    12    13   ar
    18    13    14   ar
    19    14    15   ar
    20    15    17    1
    21    17    18    3
    22    15    16   ar
    23     9    10    1
    24    25    26   ar
    25    26    27   ar
    26    27    28   ar
    27    28    29   ar
    28    29    30    1
    29    30    31    1
    30    31    32    1
    31    32    33    2
    32    29    24   ar
    33     6     1    1
    34    16    11   ar
    35    32    28    1
    36    10     4    1
    37    21    22    1
@<TRIPOS>MOLECULE
*****
 33 37 0 0 0
SMALL
GASTEIGER

@<TRIPOS>ATOM
      1 N         140.0478  138.6083  162.1996 N.3     1  UNL1       -0.2704
      2 C         141.0146  139.4033  163.0260 C.3     1  UNL1        0.0722
      3 C         140.7351  139.6474  164.4794 C.3     1  UNL1        0.0191
      4 C         139.4887  139.0964  165.1063 C.3     1  UNL1        0.0226
      5 C         138.5219  138.3014  164.2798 C.3     1  UNL1        0.0191
      6 C         138.8014  138.0574  162.8265 C.3     1  UNL1        0.0722
      7 C         138.2906  138.6112  165.8673 C.3     1  UNL1        0.0231
      8 C         138.4197  139.0835  167.2852 C.3     1  UNL1        0.0909
      9 N         139.6976  139.8606  167.4005 N.pl3   1  UNL1       -0.3063
     10 C         140.3582  139.8686  166.0538 C.3     1  UNL1        0.0909
     11 C         140.2225  140.5149  168.6439 C.ar    1  UNL1        0.0680
     12 C         139.3798  140.5531  169.8842 C.ar    1  UNL1        0.1134
     13 N         139.9048  141.2073  171.1278 N.ar    1  UNL1       -0.2403
     14 C         141.2725  141.8234  171.1310 C.ar    1  UNL1        0.1092
     15 C         142.1152  141.7852  169.8906 C.ar    1  UNL1        0.0888
     16 C         141.5902  141.1309  168.6471 C.ar    1  UNL1        0.0279
     17 C         143.4829  142.4012  169.8938 C.1     1  UNL1        0.1020
     18 N         144.8505  143.0172  169.8970 N.1     1  UNL1       -0.1908
     19 C         140.3273  138.3642  160.7461 C.3     1  UNL1        0.1063
     20 C         139.7904  139.3071  159.7105 C.3     1  UNL1        0.1483
     21 O         139.2076  138.7698  158.4371 O.3     1  UNL1       -0.3786
     22 H         138.9092  139.5069  157.8817 H       1  UNL1        0.2108
     23 C         142.0792  140.9273  158.6442 C.3     1  UNL1        0.0306
     24 C         140.9807  141.5975  159.4151 C.ar    1  UNL1       -0.0238
     25 C         139.8364  140.7875  159.9482 C.ar    1  UNL1        0.0015
     26 C         138.7380  141.4578  160.7191 C.ar    1  UNL1       -0.0020
     27 C         138.7839  142.9381  160.9568 C.ar    1  UNL1        0.0060
     28 C         139.9282  143.7481  160.4237 C.ar    1  UNL1        0.0748
     29 C         141.0267  143.0778  159.6528 C.ar    1  UNL1        0.0233
     30 C         142.0197  144.1284  159.2524 C.3     1  UNL1        0.2352
     31 O         141.5350  145.4479  159.7758 O.3     1  UNL1       -0.4404
     32 C         140.2424  145.2129  160.4996 C.2     1  UNL1        0.3413
     33 O         139.4101  146.2589  161.1801 O.2     1  UNL1       -0.2449
@<TRIPOS>BOND
     1    23    24    1
     2    24    25   ar
     3    25    20    1
     4    20    21    1
     5    20    19    1
     6    19     1    1
     7     1     2    1
     8     2     3    1
     9     3     4    1
    10     4     5    1
    11     5     6    1
    12     4     7    1
    13     7     8    1
    14     8     9    1
    15     9    11    1
    16    11    12   ar
    17    12    13   ar
    18    13    14   ar
    19    14    15   ar
    20    15    17    1
    21    17    18    3
    22    15    16   ar
    23     9    10    1
    24    25    26   ar
    25    26    27   ar
    26    27    28   ar
    27    28    29   ar
    28    29    30    1
    29    30    31    1
    30    31    32    1
    31    32    33    2
    32    29    24   ar
    33     6     1    1
    34    16    11   ar
    35    32    28    1
    36    10     4    1
    37    21    22    1
@<TRIPOS>MOLECULE
*****
 33 37 0 0 0
SMALL
GASTEIGER

@<TRIPOS>ATOM
      1 N         139.8726  138.3030  162.3939 N.3     1  UNL1       -0.2704
      2 C         139.2468  139.1178  163.4868 C.3     1  UNL1        0.0722
      3 C         139.9989  139.3677  164.7603 C.3     1  UNL1        0.0191
      4 C         141.3767  138.8030  164.9409 C.3     1  UNL1        0.0226
      5 C         142.0025  137.9883  163.8479 C.3     1  UNL1        0.0191
      6 C         141.2505  137.7383  162.5744 C.3     1  UNL1        0.0722
      7 C         142.7547  138.3056  165.2633 C.3     1  UNL1        0.0231
      8 C         143.1125  138.7895  166.6374 C.3     1  UNL1        0.0909
      9 N         141.9556  139.5859  167.1641 N.pl3   1  UNL1       -0.3063
     10 C         140.8829  139.5943  166.1157 C.3     1  UNL1        0.0909
     11 C         141.8841  140.2563  168.5040 C.ar    1  UNL1        0.0680
     12 C         142.4535  139.5768  169.7140 C.ar    1  UNL1        0.1134
     13 N         142.3820  140.2472  171.0539 N.ar    1  UNL1       -0.2403
     14 C         141.7410  141.5971  171.1839 C.ar    1  UNL1        0.1092
     15 C         141.1716  142.2767  169.9739 C.ar    1  UNL1        0.0888
     16 C         141.2432  141.6062  168.6340 C.ar    1  UNL1        0.0279
     17 C         140.5307  143.6266  170.1039 C.1     1  UNL1        0.1020
     18 N         139.8898  144.9765  170.2339 N.1     1  UNL1       -0.1908
     19 C         139.1206  138.0530  161.1203 C.3     1  UNL1        0.1063
     20 C         139.3328  138.9485  159.9358 C.3     1  UNL1        0.1483
     21 O         139.3295  138.3733  158.5505 O.3     1  UNL1       -0.3786
     22 H         139.4794  139.0822  157.9057 H       1  UNL1        0.2108
     23 C         142.1044  140.0896  159.8093 C.3     1  UNL1        0.0306
     24 C         140.9341  140.9899  160.0734 C.ar    1  UNL1       -0.0238
     25 C         139.5483  140.4194  160.1366 C.ar    1  UNL1        0.0015
     26 C         138.3779  141.3197  160.4007 C.ar    1  UNL1       -0.0020
     27 C         138.5933  142.7904  160.6015 C.ar    1  UNL1        0.0060
     28 C         139.9791  143.3609  160.5382 C.ar    1  UNL1        0.0748
     29 C         141.1495  142.4607  160.2742 C.ar    1  UNL1        0.0233
     30 C         142.3904  143.3034  160.2681 C.3     1  UNL1        0.2352
     31 O         141.9870  144.7244  160.5284 O.3     1  UNL1       -0.4404
     32 C         140.4967  144.7600  160.6954 C.2     1  UNL1        0.3413
     33 O         139.6693  145.9804  160.9711 O.2     1  UNL1       -0.2449
@<TRIPOS>BOND
     1    23    24    1
     2    24    25   ar
     3    25    20    1
     4    20    21    1
     5    20    19    1
     6    19     1    1
     7     1     2    1
     8     2     3    1
     9     3     4    1
    10     4     5    1
    11     5     6    1
    12     4     7    1
    13     7     8    1
    14     8     9    1
    15     9    11    1
    16    11    12   ar
    17    12    13   ar
    18    13    14   ar
    19    14    15   ar
    20    15    17    1
    21    17    18    3
    22    15    16   ar
    23     9    10    1
    24    25    26   ar
    25    26    27   ar
    26    27    28   ar
    27    28    29   ar
    28    29    30    1
    29    30    31    1
    30    31    32    1
    31    32    33    2
    32    29    24   ar
    33     6     1    1
    34    16    11   ar
    35    32    28    1
    36    10     4    1
    37    21    22    1
@<TRIPOS>MOLECULE
*****
 33 37 0 0 0
SMALL
GASTEIGER

@<TRIPOS>ATOM
      1 N         138.6347  141.2487  164.0091 N.3     1  UNL1       -0.2704
      2 C         139.1127  140.9172  162.6266 C.3     1  UNL1        0.0722
      3 C         139.5487  142.0138  161.7007 C.3     1  UNL1        0.0191
      4 C         139.5066  143.4420  162.1574 C.3     1  UNL1        0.0226
      5 C         139.0286  143.7735  163.5400 C.3     1  UNL1        0.0191
      6 C         138.5926  142.6769  164.4658 C.3     1  UNL1        0.0722
      7 C         139.5199  144.9085  162.4723 C.3     1  UNL1        0.0231
      8 C         140.0274  145.6376  161.2635 C.3     1  UNL1        0.0909
      9 N         140.3277  144.6216  160.2016 N.pl3   1  UNL1       -0.3063
     10 C         140.0058  143.2647  160.7540 C.3     1  UNL1        0.0909
     11 C         140.8568  144.9116  158.8284 C.ar    1  UNL1        0.0680
     12 C         142.1303  144.2692  158.3642 C.ar    1  UNL1        0.1134
     13 N         142.6595  144.5592  156.9910 N.ar    1  UNL1       -0.2403
     14 C         141.9152  145.4917  156.0819 C.ar    1  UNL1        0.1092
     15 C         140.6417  146.1342  156.5460 C.ar    1  UNL1        0.0888
     16 C         140.1125  145.8441  157.9193 C.ar    1  UNL1        0.0279
     17 C         139.8974  147.0667  155.6369 C.1     1  UNL1        0.1020
     18 N         139.1531  147.9992  154.7278 N.1     1  UNL1       -0.1908
     19 C         138.1987  140.1520  164.9351 C.3     1  UNL1        0.1063
     20 C         139.2036  139.4695  165.8149 C.3     1  UNL1        0.1483
     21 O         139.7990  138.1579  165.3960 O.3     1  UNL1       -0.3786
     22 H         140.4253  137.8564  166.0726 H       1  UNL1        0.2108
     23 C         141.6646  141.1805  165.9426 C.3     1  UNL1        0.0306
     24 C         140.8438  140.9539  167.1774 C.ar    1  UNL1       -0.0238
     25 C         139.6133  140.0984  167.1136 C.ar    1  UNL1        0.0015
     26 C         138.7925  139.8719  168.3485 C.ar    1  UNL1       -0.0020
     27 C         139.2021  140.5008  169.6472 C.ar    1  UNL1        0.0060
     28 C         140.4325  141.3563  169.7110 C.ar    1  UNL1        0.0748
     29 C         141.2534  141.5828  168.4761 C.ar    1  UNL1        0.0233
     30 C         142.4076  142.4679  168.8427 C.3     1  UNL1        0.2352
     31 O         142.3001  142.7884  170.3041 O.3     1  UNL1       -0.4404
     32 C         141.0795  142.1014  170.8407 C.2     1  UNL1        0.3413
     33 O         140.5914  142.1507  172.2583 O.2     1  UNL1       -0.2449
@<TRIPOS>BOND
     1    23    24    1
     2    24    25   ar
     3    25    20    1
     4    20    21    1
     5    20    19    1
     6    19     1    1
     7     1     2    1
     8     2     3    1
     9     3     4    1
    10     4     5    1
    11     5     6    1
    12     4     7    1
    13     7     8    1
    14     8     9    1
    15     9    11    1
    16    11    12   ar
    17    12    13   ar
    18    13    14   ar
    19    14    15   ar
    20    15    17    1
    21    17    18    3
    22    15    16   ar
    23     9    10    1
    24    25    26   ar
    25    26    27   ar
    26    27    28   ar
    27    28    29   ar
    28    29    30    1
    29    30    31    1
    30    31    32    1
    31    32    33    2
    32    29    24   ar
    33     6     1    1
    34    16    11   ar
    35    32    28    1
    36    10     4    1
    37    21    22    1
@<TRIPOS>MOLECULE
*****
 33 37 0 0 0
SMALL
GASTEIGER

@<TRIPOS>ATOM
      1 N         139.9702  137.8389  164.0387 N.3     1  UNL1       -0.2704
      2 C         139.5563  137.8667  162.5973 C.3     1  UNL1        0.0722
      3 C         140.5728  138.1466  161.5304 C.3     1  UNL1        0.0191
      4 C         142.0033  138.3987  161.9049 C.3     1  UNL1        0.0226
      5 C         142.4172  138.3709  163.3464 C.3     1  UNL1        0.0191
      6 C         141.4007  138.0911  164.4133 C.3     1  UNL1        0.0722
      7 C         143.4622  138.6680  162.1260 C.3     1  UNL1        0.0231
      8 C         144.1000  138.8942  160.7872 C.3     1  UNL1        0.0909
      9 N         143.0351  138.7646  159.7387 N.pl3   1  UNL1       -0.3063
     10 C         141.7393  138.4584  160.4295 C.3     1  UNL1        0.0909
     11 C         143.2316  138.9149  158.2593 C.ar    1  UNL1        0.0680
     12 C         142.6260  137.9172  157.3172 C.ar    1  UNL1        0.1134
     13 N         142.8224  138.0675  155.8377 N.ar    1  UNL1       -0.2403
     14 C         143.6245  139.2155  155.3004 C.ar    1  UNL1        0.1092
     15 C         144.2302  140.2133  156.2426 C.ar    1  UNL1        0.0888
     16 C         144.0336  140.0629  157.7221 C.ar    1  UNL1        0.0279
     17 C         145.0323  141.3613  155.7053 C.1     1  UNL1        0.1020
     18 N         145.8343  142.5093  155.1680 N.1     1  UNL1       -0.1908
     19 C         138.9537  137.5590  165.1057 C.3     1  UNL1        0.1063
     20 C         138.1930  138.6899  165.7320 C.3     1  UNL1        0.1483
     21 O         137.3515  138.4446  166.9493 O.3     1  UNL1       -0.3786
     22 H         136.9308  139.2742  167.2241 H       1  UNL1        0.2108
     23 C         140.0506  140.7253  166.9180 C.3     1  UNL1        0.0306
     24 C         139.2024  141.0839  165.7339 C.ar    1  UNL1       -0.0238
     25 C         138.2736  140.0663  165.1409 C.ar    1  UNL1        0.0015
     26 C         137.4254  140.4249  163.9569 C.ar    1  UNL1       -0.0020
     27 C         137.5060  141.8012  163.3659 C.ar    1  UNL1        0.0060
     28 C         138.4348  142.8188  163.9589 C.ar    1  UNL1        0.0748
     29 C         139.2830  142.4602  165.1429 C.ar    1  UNL1        0.0233
     30 C         140.0994  143.6639  165.5098 C.3     1  UNL1        0.2352
     31 O         139.7557  144.7664  164.5526 O.3     1  UNL1       -0.4404
     32 C         138.7269  144.2441  163.5941 C.2     1  UNL1        0.3413
     33 O         138.1003  145.0123  162.4683 O.2     1  UNL1       -0.2449
@<TRIPOS>BOND
     1    23    24    1
     2    24    25   ar
     3    25    20    1
     4    20    21    1
     5    20    19    1
     6    19     1    1
     7     1     2    1
     8     2     3    1
     9     3     4    1
    10     4     5    1
    11     5     6    1
    12     4     7    1
    13     7     8    1
    14     8     9    1
    15     9    11    1
    16    11    12   ar
    17    12    13   ar
    18    13    14   ar
    19    14    15   ar
    20    15    17    1
    21    17    18    3
    22    15    16   ar
    23     9    10    1
    24    25    26   ar
    25    26    27   ar
    26    27    28   ar
    27    28    29   ar
    28    29    30    1
    29    30    31    1
    30    31    32    1
    31    32    33    2
    32    29    24   ar
    33     6     1    1
    34    16    11   ar
    35    32    28    1
    36    10     4    1
    37    21    22    1
@<TRIPOS>MOLECULE
*****
 33 37 0 0 0
SMALL
GASTEIGER

@<TRIPOS>ATOM
      1 N         143.7806  139.1359  162.3786 N.3     1  UNL1       -0.2704
      2 C         142.9029  138.6868  163.5091 C.3     1  UNL1        0.0722
      3 C         142.7485  139.5490  164.7268 C.3     1  UNL1        0.0191
      4 C         143.4718  140.8602  164.8140 C.3     1  UNL1        0.0226
      5 C         144.3495  141.3092  163.6835 C.3     1  UNL1        0.0191
      6 C         144.5039  140.4470  162.4659 C.3     1  UNL1        0.0722
      7 C         144.1289  142.1891  165.0425 C.3     1  UNL1        0.0231
      8 C         143.6964  142.6951  166.3868 C.3     1  UNL1        0.0909
      9 N         142.7720  141.6788  166.9891 N.pl3   1  UNL1       -0.3063
     10 C         142.6332  140.5448  166.0171 C.3     1  UNL1        0.0909
     11 C         142.1038  141.7789  168.3282 C.ar    1  UNL1        0.0680
     12 C         142.7022  142.6377  169.4026 C.ar    1  UNL1        0.1134
     13 N         142.0339  142.7378  170.7418 N.ar    1  UNL1       -0.2403
     14 C         140.7673  141.9792  171.0066 C.ar    1  UNL1        0.1092
     15 C         140.1688  141.1204  169.9321 C.ar    1  UNL1        0.0888
     16 C         140.8372  141.0203  168.5930 C.ar    1  UNL1        0.0279
     17 C         138.9022  140.3618  170.1969 C.1     1  UNL1        0.1020
     18 N         137.6356  139.6032  170.4617 N.1     1  UNL1       -0.1908
     19 C         143.9350  138.2737  161.1609 C.3     1  UNL1        0.1063
     20 C         143.0672  138.5090  159.9603 C.3     1  UNL1        0.1483
     21 O         143.0157  137.4901  158.8607 O.3     1  UNL1       -0.3786
     22 H         142.4117  137.7949  158.1655 H       1  UNL1        0.2108
     23 C         140.2089  138.5158  160.8714 C.3     1  UNL1        0.0306
     24 C         140.8216  139.7667  160.3149 C.ar    1  UNL1       -0.0238
     25 C         142.2507  139.7634  159.8593 C.ar    1  UNL1        0.0015
     26 C         142.8634  141.0143  159.3028 C.ar    1  UNL1       -0.0020
     27 C         142.0471  142.2686  159.2018 C.ar    1  UNL1        0.0060
     28 C         140.6179  142.2719  159.6574 C.ar    1  UNL1        0.0748
     29 C         140.0052  141.0210  160.2139 C.ar    1  UNL1        0.0233
     30 C         138.5829  141.3251  160.5806 C.3     1  UNL1        0.2352
     31 O         138.3165  142.7639  160.2507 O.3     1  UNL1       -0.4404
     32 C         139.5743  143.3491  159.6801 C.2     1  UNL1        0.3413
     33 O         139.7564  144.7632  159.2141 O.2     1  UNL1       -0.2449
@<TRIPOS>BOND
     1    23    24    1
     2    24    25   ar
     3    25    20    1
     4    20    21    1
     5    20    19    1
     6    19     1    1
     7     1     2    1
     8     2     3    1
     9     3     4    1
    10     4     5    1
    11     5     6    1
    12     4     7    1
    13     7     8    1
    14     8     9    1
    15     9    11    1
    16    11    12   ar
    17    12    13   ar
    18    13    14   ar
    19    14    15   ar
    20    15    17    1
    21    17    18    3
    22    15    16   ar
    23     9    10    1
    24    25    26   ar
    25    26    27   ar
    26    27    28   ar
    27    28    29   ar
    28    29    30    1
    29    30    31    1
    30    31    32    1
    31    32    33    2
    32    29    24   ar
    33     6     1    1
    34    16    11   ar
    35    32    28    1
    36    10     4    1
    37    21    22    1
@<TRIPOS>MOLECULE
*****
 33 37 0 0 0
SMALL
GASTEIGER

@<TRIPOS>ATOM
      1 N         144.9154  141.6101  163.2147 N.3     1  UNL1       -0.2704
      2 C         144.6609  141.9643  161.7795 C.3     1  UNL1        0.0722
      3 C         144.1172  140.9317  160.8372 C.3     1  UNL1        0.0191
      4 C         143.8281  139.5448  161.3300 C.3     1  UNL1        0.0226
      5 C         144.0826  139.1905  162.7651 C.3     1  UNL1        0.0191
      6 C         144.6263  140.2231  163.7074 C.3     1  UNL1        0.0722
      7 C         143.4924  138.1245  161.6766 C.3     1  UNL1        0.0231
      8 C         142.9815  137.4530  160.4363 C.3     1  UNL1        0.0909
      9 N         143.0015  138.4583  159.3232 N.pl3   1  UNL1       -0.3063
     10 C         143.5247  139.7511  159.8755 C.3     1  UNL1        0.0909
     11 C         142.5734  138.2138  157.9066 C.ar    1  UNL1        0.0680
     12 C         142.3769  139.3706  156.9722 C.ar    1  UNL1        0.1134
     13 N         141.9488  139.1261  155.5555 N.ar    1  UNL1       -0.2403
     14 C         141.7172  137.7247  155.0732 C.ar    1  UNL1        0.1092
     15 C         141.9136  136.5678  156.0077 C.ar    1  UNL1        0.0888
     16 C         142.3417  136.8125  157.4243 C.ar    1  UNL1        0.0279
     17 C         141.6820  135.1665  155.5254 C.1     1  UNL1        0.1020
     18 N         141.4503  133.7652  155.0432 N.1     1  UNL1       -0.1908
     19 C         145.4591  142.6427  164.1571 C.3     1  UNL1        0.1063
     20 C         144.5225  143.4527  165.0036 C.3     1  UNL1        0.1483
     21 O         145.0087  144.0670  166.2828 O.3     1  UNL1       -0.3786
     22 H         144.2829  144.5534  166.7042 H       1  UNL1        0.2108
     23 C         142.3353  141.8288  166.2604 C.3     1  UNL1        0.0306
     24 C         142.0061  142.8366  165.1993 C.ar    1  UNL1       -0.0238
     25 C         143.0996  143.6486  164.5709 C.ar    1  UNL1        0.0015
     26 C         142.7703  144.6564  163.5098 C.ar    1  UNL1       -0.0020
     27 C         141.3475  144.8522  163.0771 C.ar    1  UNL1        0.0060
     28 C         140.2540  144.0403  163.7055 C.ar    1  UNL1        0.0748
     29 C         140.5833  143.0325  164.7666 C.ar    1  UNL1        0.0233
     30 C         139.3033  142.3828  165.2019 C.3     1  UNL1        0.2352
     31 O         138.1829  142.9890  164.4099 O.3     1  UNL1       -0.4404
     32 C         138.7705  144.0134  163.4851 C.2     1  UNL1        0.3413
     33 O         138.0085  144.8620  162.5108 O.2     1  UNL1       -0.2449
@<TRIPOS>BOND
     1    23    24    1
     2    24    25   ar
     3    25    20    1
     4    20    21    1
     5    20    19    1
     6    19     1    1
     7     1     2    1
     8     2     3    1
     9     3     4    1
    10     4     5    1
    11     5     6    1
    12     4     7    1
    13     7     8    1
    14     8     9    1
    15     9    11    1
    16    11    12   ar
    17    12    13   ar
    18    13    14   ar
    19    14    15   ar
    20    15    17    1
    21    17    18    3
    22    15    16   ar
    23     9    10    1
    24    25    26   ar
    25    26    27   ar
    26    27    28   ar
    27    28    29   ar
    28    29    30    1
    29    30    31    1
    30    31    32    1
    31    32    33    2
    32    29    24   ar
    33     6     1    1
    34    16    11   ar
    35    32    28    1
    36    10     4    1
    37    21    22    1
@<TRIPOS>MOLECULE
*****
 33 37 0 0 0
SMALL
GASTEIGER

@<TRIPOS>ATOM
      1 N         143.6869  139.6210  163.1933 N.3     1  UNL1       -0.2704
      2 C         143.1535  138.2924  162.7459 C.3     1  UNL1        0.0722
      3 C         142.9630  138.0144  161.2843 C.3     1  UNL1        0.0191
      4 C         143.3060  139.0650  160.2701 C.3     1  UNL1        0.0226
      5 C         143.8394  140.3936  160.7175 C.3     1  UNL1        0.0191
      6 C         144.0299  140.6716  162.1792 C.3     1  UNL1        0.0722
      7 C         143.6034  140.0129  159.1462 C.3     1  UNL1        0.0231
      8 C         143.2658  139.3240  157.8571 C.3     1  UNL1        0.0909
      9 N         142.7598  137.9503  158.1844 N.pl3   1  UNL1       -0.3063
     10 C         142.7846  137.7903  159.6756 C.3     1  UNL1        0.0909
     11 C         142.3083  136.9181  157.1943 C.ar    1  UNL1        0.0680
     12 C         141.0673  137.1485  156.3838 C.ar    1  UNL1        0.1134
     13 N         140.6158  136.1161  155.3936 N.ar    1  UNL1       -0.2403
     14 C         141.4052  134.8534  155.2139 C.ar    1  UNL1        0.1092
     15 C         142.6463  134.6229  156.0244 C.ar    1  UNL1        0.0888
     16 C         143.0977  135.6553  157.0146 C.ar    1  UNL1        0.0279
     17 C         143.4357  133.3602  155.8448 C.1     1  UNL1        0.1020
     18 N         144.2251  132.0975  155.6651 N.1     1  UNL1       -0.1908
     19 C         143.8774  139.8990  164.6550 C.3     1  UNL1        0.1063
     20 C         142.7079  140.3121  165.4986 C.3     1  UNL1        0.1483
     21 O         142.6820  139.9771  166.9604 O.3     1  UNL1       -0.3786
     22 H         141.8622  140.3137  167.3548 H       1  UNL1        0.2108
     23 C         140.1817  138.8630  164.7786 C.3     1  UNL1        0.0306
     24 C         140.3012  140.3358  164.5203 C.ar    1  UNL1       -0.0238
     25 C         141.5642  141.0603  164.8802 C.ar    1  UNL1        0.0015
     26 C         141.6837  142.5331  164.6218 C.ar    1  UNL1       -0.0020
     27 C         140.5402  143.2813  164.0035 C.ar    1  UNL1        0.0060
     28 C         139.2771  142.5567  163.6436 C.ar    1  UNL1        0.0748
     29 C         139.1576  141.0840  163.9019 C.ar    1  UNL1        0.0233
     30 C         137.7991  140.6419  163.4446 C.3     1  UNL1        0.2352
     31 O         137.0790  141.8414  162.9036 O.3     1  UNL1       -0.4404
     32 C         137.9925  143.0248  163.0265 C.2     1  UNL1        0.3413
     33 O         137.6767  144.4297  162.6063 O.2     1  UNL1       -0.2449
@<TRIPOS>BOND
     1    23    24    1
     2    24    25   ar
     3    25    20    1
     4    20    21    1
     5    20    19    1
     6    19     1    1
     7     1     2    1
     8     2     3    1
     9     3     4    1
    10     4     5    1
    11     5     6    1
    12     4     7    1
    13     7     8    1
    14     8     9    1
    15     9    11    1
    16    11    12   ar
    17    12    13   ar
    18    13    14   ar
    19    14    15   ar
    20    15    17    1
    21    17    18    3
    22    15    16   ar
    23     9    10    1
    24    25    26   ar
    25    26    27   ar
    26    27    28   ar
    27    28    29   ar
    28    29    30    1
    29    30    31    1
    30    31    32    1
    31    32    33    2
    32    29    24   ar
    33     6     1    1
    34    16    11   ar
    35    32    28    1
    36    10     4    1
    37    21    22    1
@<TRIPOS>MOLECULE
*****
 33 37 0 0 0
SMALL
GASTEIGER

@<TRIPOS>ATOM
      1 N         141.9660  137.9767  162.1530 N.3     1  UNL1       -0.2704
      2 C         142.7833  138.6449  163.2185 C.3     1  UNL1        0.0722
      3 C         142.1373  139.0682  164.5043 C.3     1  UNL1        0.0191
      4 C         140.6740  138.8233  164.7246 C.3     1  UNL1        0.0226
      5 C         139.8566  138.1550  163.6591 C.3     1  UNL1        0.0191
      6 C         140.5026  137.7318  162.3733 C.3     1  UNL1        0.0722
      7 C         139.2289  138.6455  165.0857 C.3     1  UNL1        0.0231
      8 C         139.0214  139.2111  166.4595 C.3     1  UNL1        0.0909
      9 N         140.3382  139.7383  166.9475 N.pl3   1  UNL1       -0.3063
     10 C         141.3595  139.4986  165.8753 C.3     1  UNL1        0.0909
     11 C         140.5896  140.3906  168.2745 C.ar    1  UNL1        0.0680
     12 C         139.5592  140.3019  169.3610 C.ar    1  UNL1        0.1134
     13 N         139.8106  140.9542  170.6881 N.ar    1  UNL1       -0.2403
     14 C         141.0923  141.6954  170.9288 C.ar    1  UNL1        0.1092
     15 C         142.1228  141.7841  169.8423 C.ar    1  UNL1        0.0888
     16 C         141.8713  141.1318  168.5152 C.ar    1  UNL1        0.0279
     17 C         143.4045  142.5253  170.0829 C.1     1  UNL1        0.1020
     18 N         144.6862  143.2664  170.3236 N.1     1  UNL1       -0.1908
     19 C         142.6120  137.5534  160.8670 C.3     1  UNL1        0.1063
     20 C         142.5690  138.4593  159.6723 C.3     1  UNL1        0.1483
     21 O         142.9904  137.9470  158.3270 O.3     1  UNL1       -0.3786
     22 H         142.9026  138.6547  157.6694 H       1  UNL1        0.2108
     23 C         139.7133  139.1722  159.0917 C.3     1  UNL1        0.0306
     24 C         140.6767  140.2341  159.5325 C.ar    1  UNL1       -0.0238
     25 C         142.1045  139.8777  159.8229 C.ar    1  UNL1        0.0015
     26 C         143.0678  140.9395  160.2637 C.ar    1  UNL1       -0.0020
     27 C         142.6034  142.3578  160.4143 C.ar    1  UNL1        0.0060
     28 C         141.1756  142.7142  160.1240 C.ar    1  UNL1        0.0748
     29 C         140.2122  141.6524  159.6831 C.ar    1  UNL1        0.0233
     30 C         138.8755  142.2988  159.4701 C.3     1  UNL1        0.2352
     31 O         139.0127  143.7601  159.7794 O.3     1  UNL1       -0.4404
     32 C         140.4342  144.0169  160.1835 C.2     1  UNL1        0.3413
     33 O         141.0129  145.3434  160.5778 O.2     1  UNL1       -0.2449
@<TRIPOS>BOND
     1    23    24    1
     2    24    25   ar
     3    25    20    1
     4    20    21    1
     5    20    19    1
     6    19     1    1
     7     1     2    1
     8     2     3    1
     9     3     4    1
    10     4     5    1
    11     5     6    1
    12     4     7    1
    13     7     8    1
    14     8     9    1
    15     9    11    1
    16    11    12   ar
    17    12    13   ar
    18    13    14   ar
    19    14    15   ar
    20    15    17    1
    21    17    18    3
    22    15    16   ar
    23     9    10    1
    24    25    26   ar
    25    26    27   ar
    26    27    28   ar
    27    28    29   ar
    28    29    30    1
    29    30    31    1
    30    31    32    1
    31    32    33    2
    32    29    24   ar
    33     6     1    1
    34    16    11   ar
    35    32    28    1
    36    10     4    1
    37    21    22    1
