@<TRIPOS>MOLECULE
*****
 32 35 0 0 0
SMALL
GASTEIGER

@<TRIPOS>ATOM
      1 C         139.6236  142.9412  165.4679 C.ar    1  UNL1        0.0073
      2 C         139.1499  144.3392  165.2010 C.ar    1  UNL1        0.0209
      3 C         138.0778  144.5859  164.1813 C.ar    1  UNL1        0.1003
      4 N         137.4794  143.4347  163.4285 N.ar    1  UNL1       -0.2291
      5 C         137.9532  142.0367  163.6954 C.ar    1  UNL1        0.1322
      6 C         139.0253  141.7900  164.7151 C.ar    1  UNL1        0.0345
      7 C         142.1230  142.5398  166.0529 C.ar    1  UNL1        0.1387
      8 C         143.1950  142.2931  167.0726 C.ar    1  UNL1        0.0376
      9 C         142.8398  142.2010  168.5270 C.ar    1  UNL1        0.0134
     10 C         141.4126  142.3557  168.9617 C.ar    1  UNL1        0.0686
     11 C         140.3405  142.6024  167.9420 C.ar    1  UNL1        0.0133
     12 C         140.6957  142.6945  166.4876 C.ar    1  UNL1        0.0348
     13 C         143.0574  143.9008  164.0467 C.3     1  UNL1        0.2525
     14 O         142.4782  142.6319  164.5984 O.3     1  UNL1       -0.4714
     15 C         141.0574  142.2636  170.4161 C.1     1  UNL1        0.1004
     16 N         140.7022  142.1715  171.8706 N.1     1  UNL1       -0.1908
     17 N         137.3549  140.8855  162.9426 N.pl3   1  UNL1       -0.2979
     18 H         136.4573  140.5565  163.1782 H       1  UNL1        0.1536
     19 C         138.1240  140.2355  161.8310 C.ar    1  UNL1        0.0525
     20 C         138.5348  138.7973  161.9441 C.ar    1  UNL1        0.0161
     21 C         139.3040  138.1473  160.8324 C.ar    1  UNL1        0.0189
     22 C         139.6624  138.9355  159.6075 C.ar    1  UNL1        0.0825
     23 C         139.2515  140.3737  159.4944 C.ar    1  UNL1        0.1531
     24 C         138.4824  141.0237  160.6060 C.ar    1  UNL1        0.0528
     25 N         140.4315  138.2855  158.4959 N.pl3   1  UNL1       -0.3004
     26 C         141.9205  138.1378  158.6005 C.3     1  UNL1        0.1231
     27 C         142.6897  137.4877  157.4888 C.3     1  UNL1        0.1636
     28 O         141.9698  136.9855  156.2724 O.3     1  UNL1       -0.3501
     29 C         140.4808  137.1333  156.1678 C.3     1  UNL1        0.1636
     30 C         139.7116  137.7833  157.2795 C.3     1  UNL1        0.1231
     31 O         139.6099  141.1619  158.2695 O.3     1  UNL1       -0.4701
     32 C         140.9298  141.8704  158.1931 C.3     1  UNL1        0.2525
@<TRIPOS>BOND
     1    13    14    1
     2    14     7    1
     3     7     8   ar
     4     8     9   ar
     5     9    10   ar
     6    10    15    1
     7    15    16    3
     8    10    11   ar
     9    11    12   ar
    10    12     1    1
    11     1     2   ar
    12     2     3   ar
    13     3     4   ar
    14     4     5   ar
    15     5    17    1
    16    17    19    1
    17    19    20   ar
    18    20    21   ar
    19    21    22   ar
    20    22    25    1
    21    25    26    1
    22    26    27    1
    23    27    28    1
    24    28    29    1
    25    29    30    1
    26    22    23   ar
    27    23    31    1
    28    31    32    1
    29    23    24   ar
    30     5     6   ar
    31    12     7   ar
    32     6     1   ar
    33    24    19   ar
    34    30    25    1
    35    17    18    1
@<TRIPOS>MOLECULE
*****
 32 35 0 0 0
SMALL
GASTEIGER

@<TRIPOS>ATOM
      1 C         139.6349  142.8631  165.5019 C.ar    1  UNL1        0.0073
      2 C         139.1271  144.2461  165.2201 C.ar    1  UNL1        0.0209
      3 C         138.0635  144.4579  164.1839 C.ar    1  UNL1        0.1003
      4 N         137.5077  143.2867  163.4293 N.ar    1  UNL1       -0.2291
      5 C         138.0155  141.9036  163.7110 C.ar    1  UNL1        0.1322
      6 C         139.0792  141.6919  164.7473 C.ar    1  UNL1        0.0345
      7 C         142.1349  142.5272  166.1242 C.ar    1  UNL1        0.1387
      8 C         143.1985  142.3154  167.1605 C.ar    1  UNL1        0.0376
      9 C         142.8257  142.2278  168.6108 C.ar    1  UNL1        0.0134
     10 C         141.3893  142.3519  169.0248 C.ar    1  UNL1        0.0686
     11 C         140.3258  142.5636  167.9885 C.ar    1  UNL1        0.0133
     12 C         140.6986  142.6513  166.5382 C.ar    1  UNL1        0.0348
     13 C         142.9556  143.9229  164.0924 C.3     1  UNL1        0.2525
     14 O         142.5077  142.6148  164.6739 O.3     1  UNL1       -0.4714
     15 C         141.0165  142.2642  170.4751 C.1     1  UNL1        0.1004
     16 N         140.6437  142.1766  171.9253 N.1     1  UNL1       -0.1908
     17 N         137.4598  140.7324  162.9564 N.pl3   1  UNL1       -0.2979
     18 H         136.5879  140.3522  163.2103 H       1  UNL1        0.1536
     19 C         138.2325  140.1406  161.8152 C.ar    1  UNL1        0.0525
     20 C         137.9100  140.5378  160.4051 C.ar    1  UNL1        0.0161
     21 C         138.6828  139.9459  159.2638 C.ar    1  UNL1        0.0189
     22 C         139.7780  138.9568  159.5326 C.ar    1  UNL1        0.0825
     23 C         140.1005  138.5596  160.9426 C.ar    1  UNL1        0.1531
     24 C         139.3278  139.1515  162.0839 C.ar    1  UNL1        0.0528
     25 N         140.5507  138.3649  158.3913 N.pl3   1  UNL1       -0.3004
     26 C         142.0436  138.5033  158.3446 C.3     1  UNL1        0.1231
     27 C         142.8163  137.9113  157.2032 C.3     1  UNL1        0.1636
     28 O         142.0962  137.1812  156.1086 O.3     1  UNL1       -0.3501
     29 C         140.6033  137.0429  156.1553 C.3     1  UNL1        0.1636
     30 C         139.8306  137.6347  157.2966 C.3     1  UNL1        0.1231
     31 O         141.1957  137.5705  161.2114 O.3     1  UNL1       -0.4701
     32 C         142.3192  137.9291  162.1383 C.3     1  UNL1        0.2525
@<TRIPOS>BOND
     1    13    14    1
     2    14     7    1
     3     7     8   ar
     4     8     9   ar
     5     9    10   ar
     6    10    15    1
     7    15    16    3
     8    10    11   ar
     9    11    12   ar
    10    12     1    1
    11     1     2   ar
    12     2     3   ar
    13     3     4   ar
    14     4     5   ar
    15     5    17    1
    16    17    19    1
    17    19    20   ar
    18    20    21   ar
    19    21    22   ar
    20    22    25    1
    21    25    26    1
    22    26    27    1
    23    27    28    1
    24    28    29    1
    25    29    30    1
    26    22    23   ar
    27    23    31    1
    28    31    32    1
    29    23    24   ar
    30     5     6   ar
    31    12     7   ar
    32     6     1   ar
    33    24    19   ar
    34    30    25    1
    35    17    18    1
@<TRIPOS>MOLECULE
*****
 32 35 0 0 0
SMALL
GASTEIGER

@<TRIPOS>ATOM
      1 C         142.7570  140.4090  165.7762 C.ar    1  UNL1        0.0073
      2 C         143.6490  139.2217  165.5654 C.ar    1  UNL1        0.0209
      3 C         144.8045  139.3113  164.6131 C.ar    1  UNL1        0.1003
      4 N         145.0679  140.5883  163.8715 N.ar    1  UNL1       -0.2291
      5 C         144.1758  141.7757  164.0823 C.ar    1  UNL1        0.1322
      6 C         143.0203  141.6860  165.0346 C.ar    1  UNL1        0.0345
      7 C         140.3277  139.6522  166.3016 C.ar    1  UNL1        0.1387
      8 C         139.1724  139.5625  167.2539 C.ar    1  UNL1        0.0376
      9 C         139.2908  140.1400  168.6332 C.ar    1  UNL1        0.0134
     10 C         140.5645  140.8072  169.0602 C.ar    1  UNL1        0.0686
     11 C         141.7199  140.8968  168.1078 C.ar    1  UNL1        0.0133
     12 C         141.6015  140.3193  166.7285 C.ar    1  UNL1        0.0348
     13 C         140.4256  137.6067  164.7027 C.3     1  UNL1        0.2525
     14 O         140.2093  139.0746  164.9223 O.3     1  UNL1       -0.4714
     15 C         140.6829  141.3847  170.4395 C.1     1  UNL1        0.1004
     16 N         140.8013  141.9622  171.8188 N.1     1  UNL1       -0.1908
     17 N         144.4392  143.0527  163.3408 N.pl3   1  UNL1       -0.2979
     18 H         145.1540  143.6587  163.6425 H       1  UNL1        0.1536
     19 C         143.6134  143.4063  162.1395 C.ar    1  UNL1        0.0525
     20 C         143.9476  142.8190  160.8004 C.ar    1  UNL1        0.0161
     21 C         143.1218  143.1727  159.5991 C.ar    1  UNL1        0.0189
     22 C         141.9619  144.1137  159.7370 C.ar    1  UNL1        0.0825
     23 C         141.6277  144.7011  161.0761 C.ar    1  UNL1        0.1531
     24 C         142.4535  144.3474  162.2774 C.ar    1  UNL1        0.0528
     25 N         141.1362  144.4674  158.5357 N.pl3   1  UNL1       -0.3004
     26 C         141.3562  145.7740  157.8326 C.3     1  UNL1        0.1231
     27 C         140.5304  146.1276  156.6313 C.3     1  UNL1        0.1636
     28 O         139.4846  145.1747  156.1332 O.3     1  UNL1       -0.3501
     29 C         139.2646  143.8681  156.8363 C.3     1  UNL1        0.1636
     30 C         140.0903  143.5144  158.0375 C.3     1  UNL1        0.1231
     31 O         140.4679  145.6422  161.2140 O.3     1  UNL1       -0.4701
     32 C         139.5211  145.5014  162.3689 C.3     1  UNL1        0.2525
@<TRIPOS>BOND
     1    13    14    1
     2    14     7    1
     3     7     8   ar
     4     8     9   ar
     5     9    10   ar
     6    10    15    1
     7    15    16    3
     8    10    11   ar
     9    11    12   ar
    10    12     1    1
    11     1     2   ar
    12     2     3   ar
    13     3     4   ar
    14     4     5   ar
    15     5    17    1
    16    17    19    1
    17    19    20   ar
    18    20    21   ar
    19    21    22   ar
    20    22    25    1
    21    25    26    1
    22    26    27    1
    23    27    28    1
    24    28    29    1
    25    29    30    1
    26    22    23   ar
    27    23    31    1
    28    31    32    1
    29    23    24   ar
    30     5     6   ar
    31    12     7   ar
    32     6     1   ar
    33    24    19   ar
    34    30    25    1
    35    17    18    1
@<TRIPOS>MOLECULE
*****
 32 35 0 0 0
SMALL
GASTEIGER

@<TRIPOS>ATOM
      1 C         138.7752  141.5254  161.4174 C.ar    1  UNL1        0.0073
      2 C         137.9149  140.9618  160.3255 C.ar    1  UNL1        0.0209
      3 C         137.4895  139.5242  160.3723 C.ar    1  UNL1        0.1003
      4 N         137.9243  138.6501  161.5111 N.ar    1  UNL1       -0.2291
      5 C         138.7847  139.2136  162.6031 C.ar    1  UNL1        0.1322
      6 C         139.2101  140.6513  162.5562 C.ar    1  UNL1        0.0345
      7 C         138.7343  143.9181  162.4290 C.ar    1  UNL1        0.1387
      8 C         139.1597  145.3557  162.3820 C.ar    1  UNL1        0.0376
      9 C         140.0516  145.8382  161.2767 C.ar    1  UNL1        0.0134
     10 C         140.5180  144.8832  160.2183 C.ar    1  UNL1        0.0686
     11 C         140.0925  143.4456  160.2652 C.ar    1  UNL1        0.0133
     12 C         139.2007  142.9630  161.3705 C.ar    1  UNL1        0.0348
     13 C         138.4043  143.2087  164.9064 C.3     1  UNL1        0.2525
     14 O         137.8424  143.4356  163.5343 O.3     1  UNL1       -0.4714
     15 C         141.4098  145.3657  159.1130 C.1     1  UNL1        0.1004
     16 N         142.3017  145.8483  158.0076 N.1     1  UNL1       -0.1908
     17 N         139.2195  138.3395  163.7418 N.pl3   1  UNL1       -0.2979
     18 H         139.3383  137.3722  163.6024 H       1  UNL1        0.1536
     19 C         139.4734  138.9392  165.0931 C.ar    1  UNL1        0.0525
     20 C         138.3710  138.9929  166.1089 C.ar    1  UNL1        0.0161
     21 C         138.6250  139.5927  167.4602 C.ar    1  UNL1        0.0189
     22 C         139.9811  140.1387  167.7955 C.ar    1  UNL1        0.0825
     23 C         141.0835  140.0851  166.7797 C.ar    1  UNL1        0.1531
     24 C         140.8296  139.4854  165.4285 C.ar    1  UNL1        0.0528
     25 N         140.2350  140.7385  169.1468 N.pl3   1  UNL1       -0.3004
     26 C         140.7814  139.8873  170.2545 C.3     1  UNL1        0.1231
     27 C         141.0352  140.4871  171.6058 C.3     1  UNL1        0.1636
     28 O         140.7427  141.9380  171.8493 O.3     1  UNL1       -0.3501
     29 C         140.1964  142.7892  170.7415 C.3     1  UNL1        0.1636
     30 C         139.9425  142.1894  169.3903 C.3     1  UNL1        0.1231
     31 O         142.4397  140.6312  167.1150 O.3     1  UNL1       -0.4701
     32 C         142.8731  141.9557  166.5602 C.3     1  UNL1        0.2525
@<TRIPOS>BOND
     1    13    14    1
     2    14     7    1
     3     7     8   ar
     4     8     9   ar
     5     9    10   ar
     6    10    15    1
     7    15    16    3
     8    10    11   ar
     9    11    12   ar
    10    12     1    1
    11     1     2   ar
    12     2     3   ar
    13     3     4   ar
    14     4     5   ar
    15     5    17    1
    16    17    19    1
    17    19    20   ar
    18    20    21   ar
    19    21    22   ar
    20    22    25    1
    21    25    26    1
    22    26    27    1
    23    27    28    1
    24    28    29    1
    25    29    30    1
    26    22    23   ar
    27    23    31    1
    28    31    32    1
    29    23    24   ar
    30     5     6   ar
    31    12     7   ar
    32     6     1   ar
    33    24    19   ar
    34    30    25    1
    35    17    18    1
@<TRIPOS>MOLECULE
*****
 32 35 0 0 0
SMALL
GASTEIGER

@<TRIPOS>ATOM
      1 C         139.3330  143.2483  164.7773 C.ar    1  UNL1        0.0073
      2 C         137.8852  143.4572  164.4452 C.ar    1  UNL1        0.0209
      3 C         137.5001  144.3116  163.2741 C.ar    1  UNL1        0.1003
      4 N         138.5627  144.9572  162.4349 N.ar    1  UNL1       -0.2291
      5 C         140.0105  144.7483  162.7670 C.ar    1  UNL1        0.1322
      6 C         140.3957  143.8939  163.9382 C.ar    1  UNL1        0.0345
      7 C         139.3866  140.9310  165.9508 C.ar    1  UNL1        0.1387
      8 C         139.7717  140.0767  167.1220 C.ar    1  UNL1        0.0376
      9 C         140.4884  140.6851  168.2908 C.ar    1  UNL1        0.0134
     10 C         140.8200  142.1480  168.2884 C.ar    1  UNL1        0.0686
     11 C         140.4349  143.0024  167.1173 C.ar    1  UNL1        0.0133
     12 C         139.7182  142.3939  165.9485 C.ar    1  UNL1        0.0348
     13 C         139.4277  139.4982  163.7840 C.3     1  UNL1        0.2525
     14 O         138.6699  140.3225  164.7821 O.3     1  UNL1       -0.4714
     15 C         141.5367  142.7565  169.4572 C.1     1  UNL1        0.1004
     16 N         142.2534  143.3650  170.6260 N.1     1  UNL1       -0.1908
     17 N         141.0732  145.3938  161.9279 N.pl3   1  UNL1       -0.2979
     18 H         141.2674  146.3533  162.0320 H       1  UNL1        0.1536
     19 C         141.8399  144.5774  160.9302 C.ar    1  UNL1        0.0525
     20 C         141.5950  144.7636  159.4621 C.ar    1  UNL1        0.0161
     21 C         142.3618  143.9471  158.4643 C.ar    1  UNL1        0.0189
     22 C         143.3734  142.9444  158.9347 C.ar    1  UNL1        0.0825
     23 C         143.6183  142.7583  160.4028 C.ar    1  UNL1        0.1531
     24 C         142.8516  143.5747  161.4006 C.ar    1  UNL1        0.0528
     25 N         144.1402  142.1280  157.9370 N.pl3   1  UNL1       -0.3004
     26 C         145.5109  142.5610  157.5084 C.3     1  UNL1        0.1231
     27 C         146.2776  141.7445  156.5106 C.3     1  UNL1        0.1636
     28 O         145.6736  140.4951  155.9415 O.3     1  UNL1       -0.3501
     29 C         144.3029  140.0620  156.3700 C.3     1  UNL1        0.1636
     30 C         143.5362  140.8785  157.3678 C.3     1  UNL1        0.1231
     31 O         144.6300  141.7556  160.8732 O.3     1  UNL1       -0.4701
     32 C         145.1367  141.8068  162.2841 C.3     1  UNL1        0.2525
@<TRIPOS>BOND
     1    13    14    1
     2    14     7    1
     3     7     8   ar
     4     8     9   ar
     5     9    10   ar
     6    10    15    1
     7    15    16    3
     8    10    11   ar
     9    11    12   ar
    10    12     1    1
    11     1     2   ar
    12     2     3   ar
    13     3     4   ar
    14     4     5   ar
    15     5    17    1
    16    17    19    1
    17    19    20   ar
    18    20    21   ar
    19    21    22   ar
    20    22    25    1
    21    25    26    1
    22    26    27    1
    23    27    28    1
    24    28    29    1
    25    29    30    1
    26    22    23   ar
    27    23    31    1
    28    31    32    1
    29    23    24   ar
    30     5     6   ar
    31    12     7   ar
    32     6     1   ar
    33    24    19   ar
    34    30    25    1
    35    17    18    1
@<TRIPOS>MOLECULE
*****
 32 35 0 0 0
SMALL
GASTEIGER

@<TRIPOS>ATOM
      1 C         140.3972  142.9402  165.4121 C.ar    1  UNL1        0.0073
      2 C         139.4356  144.0585  165.1388 C.ar    1  UNL1        0.0209
      3 C         139.6733  144.9868  163.9848 C.ar    1  UNL1        0.1003
      4 N         140.8727  144.7969  163.1041 N.ar    1  UNL1       -0.2291
      5 C         141.8343  143.6786  163.3775 C.ar    1  UNL1        0.1322
      6 C         141.5966  142.7503  164.5315 C.ar    1  UNL1        0.0345
      7 C         139.4606  140.7033  166.3444 C.ar    1  UNL1        0.1387
      8 C         139.2229  139.7750  167.4983 C.ar    1  UNL1        0.0376
      9 C         139.6841  140.1552  168.8741 C.ar    1  UNL1        0.0134
     10 C         140.3830  141.4638  169.0959 C.ar    1  UNL1        0.0686
     11 C         140.6207  142.3921  167.9419 C.ar    1  UNL1        0.0133
     12 C         140.1595  142.0118  166.5661 C.ar    1  UNL1        0.0348
     13 C         138.6273  138.9013  164.6686 C.3     1  UNL1        0.2525
     14 O         138.9994  140.3231  164.9686 O.3     1  UNL1       -0.4714
     15 C         140.8443  141.8440  170.4716 C.1     1  UNL1        0.1004
     16 N         141.3055  142.2242  171.8474 N.1     1  UNL1       -0.1908
     17 N         143.0336  143.4887  162.4969 N.pl3   1  UNL1       -0.2979
     18 H         143.8486  144.0181  162.6542 H       1  UNL1        0.1536
     19 C         142.9912  142.4922  161.3766 C.ar    1  UNL1        0.0525
     20 C         142.2120  142.7962  160.1314 C.ar    1  UNL1        0.0161
     21 C         142.1696  141.7996  159.0111 C.ar    1  UNL1        0.0189
     22 C         142.9063  140.4990  159.1360 C.ar    1  UNL1        0.0825
     23 C         143.6854  140.1949  160.3812 C.ar    1  UNL1        0.1531
     24 C         143.7279  141.1915  161.5015 C.ar    1  UNL1        0.0528
     25 N         142.8638  139.5025  158.0157 N.pl3   1  UNL1       -0.3004
     26 C         142.0139  138.2726  158.1378 C.3     1  UNL1        0.1231
     27 C         141.9715  137.2760  157.0174 C.3     1  UNL1        0.1636
     28 O         142.7790  137.5094  155.7751 O.3     1  UNL1       -0.3501
     29 C         143.6290  138.7393  155.6531 C.3     1  UNL1        0.1636
     30 C         143.6714  139.7358  156.7733 C.3     1  UNL1        0.1231
     31 O         144.4221  138.8943  160.5061 O.3     1  UNL1       -0.4701
     32 C         143.9137  137.8304  161.4333 C.3     1  UNL1        0.2525
@<TRIPOS>BOND
     1    13    14    1
     2    14     7    1
     3     7     8   ar
     4     8     9   ar
     5     9    10   ar
     6    10    15    1
     7    15    16    3
     8    10    11   ar
     9    11    12   ar
    10    12     1    1
    11     1     2   ar
    12     2     3   ar
    13     3     4   ar
    14     4     5   ar
    15     5    17    1
    16    17    19    1
    17    19    20   ar
    18    20    21   ar
    19    21    22   ar
    20    22    25    1
    21    25    26    1
    22    26    27    1
    23    27    28    1
    24    28    29    1
    25    29    30    1
    26    22    23   ar
    27    23    31    1
    28    31    32    1
    29    23    24   ar
    30     5     6   ar
    31    12     7   ar
    32     6     1   ar
    33    24    19   ar
    34    30    25    1
    35    17    18    1
@<TRIPOS>MOLECULE
*****
 32 35 0 0 0
SMALL
GASTEIGER

@<TRIPOS>ATOM
      1 C         142.8520  140.6705  165.7273 C.ar    1  UNL1        0.0073
      2 C         143.6863  139.4513  165.4676 C.ar    1  UNL1        0.0209
      3 C         144.7556  139.4842  164.4162 C.ar    1  UNL1        0.1003
      4 N         144.9905  140.7363  163.6243 N.ar    1  UNL1       -0.2291
      5 C         144.1561  141.9555  163.8839 C.ar    1  UNL1        0.1322
      6 C         143.0869  141.9226  164.9354 C.ar    1  UNL1        0.0345
      7 C         141.9354  141.4513  168.0295 C.ar    1  UNL1        0.1387
      8 C         140.8662  141.4183  169.0809 C.ar    1  UNL1        0.0376
      9 C         139.6441  140.5715  168.8816 C.ar    1  UNL1        0.0134
     10 C         139.4914  139.7578  167.6309 C.ar    1  UNL1        0.0686
     11 C         140.5607  139.7908  166.5794 C.ar    1  UNL1        0.0133
     12 C         141.7827  140.6375  166.7788 C.ar    1  UNL1        0.0348
     13 C         143.8103  142.3670  169.5775 C.3     1  UNL1        0.2525
     14 O         143.1574  142.2980  168.2288 O.3     1  UNL1       -0.4714
     15 C         138.2694  138.9111  167.4315 C.1     1  UNL1        0.1004
     16 N         137.0474  138.0643  167.2322 N.1     1  UNL1       -0.1908
     17 N         144.3910  143.2076  163.0921 N.pl3   1  UNL1       -0.2979
     18 H         145.0711  143.8558  163.3864 H       1  UNL1        0.1536
     19 C         143.5898  143.4721  161.8520 C.ar    1  UNL1        0.0525
     20 C         144.0431  142.9182  160.5338 C.ar    1  UNL1        0.0161
     21 C         143.2418  143.1827  159.2936 C.ar    1  UNL1        0.0189
     22 C         141.9872  144.0011  159.3717 C.ar    1  UNL1        0.0825
     23 C         141.5338  144.5550  160.6899 C.ar    1  UNL1        0.1531
     24 C         142.3351  144.2905  161.9300 C.ar    1  UNL1        0.0528
     25 N         141.1859  144.2656  158.1315 N.pl3   1  UNL1       -0.3004
     26 C         141.3702  145.5501  157.3793 C.3     1  UNL1        0.1231
     27 C         140.5689  145.8146  156.1391 C.3     1  UNL1        0.1636
     28 O         139.5833  144.7945  155.6512 O.3     1  UNL1       -0.3501
     29 C         139.3990  143.5099  156.4035 C.3     1  UNL1        0.1636
     30 C         140.2002  143.2455  157.6436 C.3     1  UNL1        0.1231
     31 O         140.2792  145.3734  160.7680 O.3     1  UNL1       -0.4701
     32 C         139.9841  146.1782  161.9989 C.3     1  UNL1        0.2525
@<TRIPOS>BOND
     1    13    14    1
     2    14     7    1
     3     7     8   ar
     4     8     9   ar
     5     9    10   ar
     6    10    15    1
     7    15    16    3
     8    10    11   ar
     9    11    12   ar
    10    12     1    1
    11     1     2   ar
    12     2     3   ar
    13     3     4   ar
    14     4     5   ar
    15     5    17    1
    16    17    19    1
    17    19    20   ar
    18    20    21   ar
    19    21    22   ar
    20    22    25    1
    21    25    26    1
    22    26    27    1
    23    27    28    1
    24    28    29    1
    25    29    30    1
    26    22    23   ar
    27    23    31    1
    28    31    32    1
    29    23    24   ar
    30     5     6   ar
    31    12     7   ar
    32     6     1   ar
    33    24    19   ar
    34    30    25    1
    35    17    18    1
@<TRIPOS>MOLECULE
*****
 32 35 0 0 0
SMALL
GASTEIGER

@<TRIPOS>ATOM
      1 C         142.7107  142.8501  165.4471 C.ar    1  UNL1        0.0073
      2 C         144.0306  143.4647  165.0863 C.ar    1  UNL1        0.0209
      3 C         144.1041  144.5035  164.0068 C.ar    1  UNL1        0.1003
      4 N         142.8577  144.9279  163.2881 N.ar    1  UNL1       -0.2291
      5 C         141.5378  144.3133  163.6489 C.ar    1  UNL1        0.1322
      6 C         141.4643  143.2744  164.7285 C.ar    1  UNL1        0.0345
      7 C         142.8929  140.3700  166.1993 C.ar    1  UNL1        0.1387
      8 C         142.8194  139.3312  167.2788 C.ar    1  UNL1        0.0376
      9 C         142.4902  139.7337  168.6858 C.ar    1  UNL1        0.0134
     10 C         142.2344  141.1749  169.0132 C.ar    1  UNL1        0.0686
     11 C         142.3079  142.2137  167.9337 C.ar    1  UNL1        0.0133
     12 C         142.6372  141.8112  166.5267 C.ar    1  UNL1        0.0348
     13 C         144.6482  139.7235  164.3962 C.3     1  UNL1        0.2525
     14 O         143.2222  139.9675  164.7923 O.3     1  UNL1       -0.4714
     15 C         141.9052  141.5774  170.4202 C.1     1  UNL1        0.1004
     16 N         141.5759  141.9799  171.8272 N.1     1  UNL1       -0.1908
     17 N         140.2915  144.7376  162.9302 N.pl3   1  UNL1       -0.2979
     18 H         139.7615  145.4950  163.2690 H       1  UNL1        0.1536
     19 C         139.8526  144.0080  161.6954 C.ar    1  UNL1        0.0525
     20 C         140.2063  144.5461  160.3407 C.ar    1  UNL1        0.0161
     21 C         139.7673  143.8164  159.1057 C.ar    1  UNL1        0.0189
     22 C         138.9747  142.5486  159.2256 C.ar    1  UNL1        0.0825
     23 C         138.6209  142.0105  160.5803 C.ar    1  UNL1        0.1531
     24 C         139.0598  142.7402  161.8152 C.ar    1  UNL1        0.0528
     25 N         138.5358  141.8190  157.9908 N.pl3   1  UNL1       -0.3004
     26 C         137.3431  142.3007  157.2191 C.3     1  UNL1        0.1231
     27 C         136.9042  141.5709  155.9841 C.3     1  UNL1        0.1636
     28 O         137.6579  140.3597  155.5210 O.3     1  UNL1       -0.3501
     29 C         138.8506  139.8780  156.2927 C.3     1  UNL1        0.1636
     30 C         139.2895  140.6076  157.5275 C.3     1  UNL1        0.1231
     31 O         137.8283  140.7428  160.7002 O.3     1  UNL1       -0.4701
     32 C         137.8228  139.9810  161.9924 C.3     1  UNL1        0.2525
@<TRIPOS>BOND
     1    13    14    1
     2    14     7    1
     3     7     8   ar
     4     8     9   ar
     5     9    10   ar
     6    10    15    1
     7    15    16    3
     8    10    11   ar
     9    11    12   ar
    10    12     1    1
    11     1     2   ar
    12     2     3   ar
    13     3     4   ar
    14     4     5   ar
    15     5    17    1
    16    17    19    1
    17    19    20   ar
    18    20    21   ar
    19    21    22   ar
    20    22    25    1
    21    25    26    1
    22    26    27    1
    23    27    28    1
    24    28    29    1
    25    29    30    1
    26    22    23   ar
    27    23    31    1
    28    31    32    1
    29    23    24   ar
    30     5     6   ar
    31    12     7   ar
    32     6     1   ar
    33    24    19   ar
    34    30    25    1
    35    17    18    1
@<TRIPOS>MOLECULE
*****
 32 35 0 0 0
SMALL
GASTEIGER

@<TRIPOS>ATOM
      1 C         143.5130  140.8633  160.0501 C.ar    1  UNL1        0.0073
      2 C         144.1930  142.2003  160.0415 C.ar    1  UNL1        0.0209
      3 C         145.0683  142.6040  161.1908 C.ar    1  UNL1        0.1003
      4 N         145.2636  141.6706  162.3488 N.ar    1  UNL1       -0.2291
      5 C         144.5836  140.3337  162.3574 C.ar    1  UNL1        0.1322
      6 C         143.7083  139.9300  161.2080 C.ar    1  UNL1        0.0345
      7 C         143.2549  139.9932  157.6157 C.ar    1  UNL1        0.1387
      8 C         142.3795  139.5896  156.4665 C.ar    1  UNL1        0.0376
      9 C         140.8870  139.6525  156.6022 C.ar    1  UNL1        0.0134
     10 C         140.2698  140.1190  157.8873 C.ar    1  UNL1        0.0686
     11 C         141.1452  140.5226  159.0366 C.ar    1  UNL1        0.0133
     12 C         142.6377  140.4597  158.9008 C.ar    1  UNL1        0.0348
     13 C         145.4595  140.8929  156.5765 C.3     1  UNL1        0.2525
     14 O         144.7474  139.9304  157.4799 O.3     1  UNL1       -0.4714
     15 C         138.7773  140.1818  158.0231 C.1     1  UNL1        0.1004
     16 N         137.2848  140.2447  158.1589 N.1     1  UNL1       -0.1908
     17 N         144.7789  139.4003  163.5152 N.pl3   1  UNL1       -0.2979
     18 H         145.3979  138.6390  163.4348 H       1  UNL1        0.1536
     19 C         144.0311  139.6270  164.7956 C.ar    1  UNL1        0.0525
     20 C         143.8788  138.5084  165.7833 C.ar    1  UNL1        0.0161
     21 C         143.1310  138.7352  167.0638 C.ar    1  UNL1        0.0189
     22 C         142.5355  140.0804  167.3564 C.ar    1  UNL1        0.0825
     23 C         142.6879  141.1990  166.3687 C.ar    1  UNL1        0.1531
     24 C         143.4357  140.9723  165.0883 C.ar    1  UNL1        0.0528
     25 N         141.7878  140.3071  168.6368 N.pl3   1  UNL1       -0.3004
     26 C         140.3046  140.0891  168.6878 C.3     1  UNL1        0.1231
     27 C         139.5568  140.3159  169.9683 C.3     1  UNL1        0.1636
     28 O         140.2922  140.7605  171.1976 O.3     1  UNL1       -0.3501
     29 C         141.7754  140.9785  171.1466 C.3     1  UNL1        0.1636
     30 C         142.5232  140.7518  169.8662 C.3     1  UNL1        0.1231
     31 O         142.0925  142.5443  166.6613 O.3     1  UNL1       -0.4701
     32 C         140.6871  142.8510  166.2362 C.3     1  UNL1        0.2525
@<TRIPOS>BOND
     1    13    14    1
     2    14     7    1
     3     7     8   ar
     4     8     9   ar
     5     9    10   ar
     6    10    15    1
     7    15    16    3
     8    10    11   ar
     9    11    12   ar
    10    12     1    1
    11     1     2   ar
    12     2     3   ar
    13     3     4   ar
    14     4     5   ar
    15     5    17    1
    16    17    19    1
    17    19    20   ar
    18    20    21   ar
    19    21    22   ar
    20    22    25    1
    21    25    26    1
    22    26    27    1
    23    27    28    1
    24    28    29    1
    25    29    30    1
    26    22    23   ar
    27    23    31    1
    28    31    32    1
    29    23    24   ar
    30     5     6   ar
    31    12     7   ar
    32     6     1   ar
    33    24    19   ar
    34    30    25    1
    35    17    18    1
