@<TRIPOS>MOLECULE
*****
 17 17 0 0 0
SMALL
GASTEIGER

@<TRIPOS>ATOM
      1 C         139.6984  140.4280  168.3103 C.1     1  UNL1       -0.0727
      2 C         139.5424  140.5201  166.8213 C.1     1  UNL1       -0.0849
      3 C         139.8546  140.3359  169.7993 C.3     1  UNL1        0.1498
      4 N         140.6456  141.3758  170.5362 N.3     1  UNL1       -0.2618
      5 C         140.0594  142.7362  170.7725 C.3     1  UNL1        0.0730
      6 C         140.3076  143.8410  169.7887 C.3     1  UNL1        0.0188
      7 C         142.0228  141.0553  171.0368 C.3     1  UNL1        0.0730
      8 C         143.1750  140.9986  170.0781 C.3     1  UNL1        0.0174
      9 C         143.0073  142.1774  167.7688 C.3     1  UNL1        0.0000
     10 C         143.4738  142.1733  169.1944 C.3     1  UNL1        0.0014
     11 C         139.3863  140.6122  165.3323 C.3     1  UNL1        0.1023
     12 C         138.9665  141.9064  164.7008 C.ar    1  UNL1       -0.0092
     13 C         139.4281  143.2094  165.2829 C.ar    1  UNL1       -0.0033
     14 C         139.0083  144.5036  164.6514 C.ar    1  UNL1       -0.0003
     15 C         138.1270  144.4948  163.4377 C.ar    1  UNL1       -0.0000
     16 C         137.6654  143.1918  162.8555 C.ar    1  UNL1       -0.0003
     17 C         138.0851  141.8975  163.4871 C.ar    1  UNL1       -0.0033
@<TRIPOS>BOND
     1     9    10    1
     2    10     8    1
     3     8     7    1
     4     7     4    1
     5     4     5    1
     6     5     6    1
     7     4     3    1
     8     3     1    1
     9     1     2    3
    10     2    11    1
    11    11    12    1
    12    12    13   ar
    13    13    14   ar
    14    14    15   ar
    15    15    16   ar
    16    16    17   ar
    17    17    12   ar
@<TRIPOS>MOLECULE
*****
 17 17 0 0 0
SMALL
GASTEIGER

@<TRIPOS>ATOM
      1 C         139.4066  140.2878  169.1236 C.1     1  UNL1       -0.0727
      2 C         138.6530  139.5237  168.0756 C.1     1  UNL1       -0.0849
      3 C         140.1603  141.0520  170.1715 C.3     1  UNL1        0.1498
      4 N         141.4633  141.7107  169.8276 N.3     1  UNL1       -0.2618
      5 C         141.6169  143.1949  169.9815 C.3     1  UNL1        0.0730
      6 C         140.4089  144.0828  169.9343 C.3     1  UNL1        0.0188
      7 C         142.6126  140.8853  169.3300 C.3     1  UNL1        0.0730
      8 C         142.8273  140.7100  167.8558 C.3     1  UNL1        0.0174
      9 C         142.0873  139.3383  165.7771 C.3     1  UNL1        0.0000
     10 C         142.5365  139.3890  167.2073 C.3     1  UNL1        0.0014
     11 C         137.8993  138.7596  167.0277 C.3     1  UNL1        0.1023
     12 C         138.3615  138.7880  165.6010 C.ar    1  UNL1       -0.0092
     13 C         138.2338  140.0473  164.7962 C.ar    1  UNL1       -0.0033
     14 C         138.6960  140.0757  163.3695 C.ar    1  UNL1       -0.0003
     15 C         139.2860  138.8448  162.7476 C.ar    1  UNL1       -0.0000
     16 C         139.4137  137.5855  163.5524 C.ar    1  UNL1       -0.0003
     17 C         138.9515  137.5571  164.9791 C.ar    1  UNL1       -0.0033
@<TRIPOS>BOND
     1     9    10    1
     2    10     8    1
     3     8     7    1
     4     7     4    1
     5     4     5    1
     6     5     6    1
     7     4     3    1
     8     3     1    1
     9     1     2    3
    10     2    11    1
    11    11    12    1
    12    12    13   ar
    13    13    14   ar
    14    14    15   ar
    15    15    16   ar
    16    16    17   ar
    17    17    12   ar
@<TRIPOS>MOLECULE
*****
 17 17 0 0 0
SMALL
GASTEIGER

@<TRIPOS>ATOM
      1 C         139.1454  139.9622  168.8380 C.1     1  UNL1       -0.0727
      2 C         138.7511  139.6380  167.4275 C.1     1  UNL1       -0.0849
      3 C         139.5398  140.2864  170.2484 C.3     1  UNL1        0.1498
      4 N         140.6593  141.2495  170.5117 N.3     1  UNL1       -0.2618
      5 C         140.3656  142.7092  170.6936 C.3     1  UNL1        0.0730
      6 C         140.3890  143.6320  169.5113 C.3     1  UNL1        0.0188
      7 C         142.0723  140.7529  170.5930 C.3     1  UNL1        0.0730
      8 C         143.0253  141.0145  169.4646 C.3     1  UNL1        0.0174
      9 C         142.2512  141.5386  167.0405 C.3     1  UNL1        0.0000
     10 C         142.6920  140.5491  168.0781 C.3     1  UNL1        0.0014
     11 C         138.3567  139.3138  166.0171 C.3     1  UNL1        0.1023
     12 C         139.3508  138.6856  165.0859 C.ar    1  UNL1       -0.0092
     13 C         140.7872  138.5565  165.4982 C.ar    1  UNL1       -0.0033
     14 C         141.7813  137.9284  164.5670 C.ar    1  UNL1       -0.0003
     15 C         141.3391  137.4293  163.2234 C.ar    1  UNL1       -0.0000
     16 C         139.9027  137.5584  162.8110 C.ar    1  UNL1       -0.0003
     17 C         138.9086  138.1866  163.7422 C.ar    1  UNL1       -0.0033
@<TRIPOS>BOND
     1     9    10    1
     2    10     8    1
     3     8     7    1
     4     7     4    1
     5     4     5    1
     6     5     6    1
     7     4     3    1
     8     3     1    1
     9     1     2    3
    10     2    11    1
    11    11    12    1
    12    12    13   ar
    13    13    14   ar
    14    14    15   ar
    15    15    16   ar
    16    16    17   ar
    17    17    12   ar
@<TRIPOS>MOLECULE
*****
 17 17 0 0 0
SMALL
GASTEIGER

@<TRIPOS>ATOM
      1 C         140.5422  141.4595  163.8310 C.1     1  UNL1       -0.0727
      2 C         140.3353  140.7890  165.1568 C.1     1  UNL1       -0.0849
      3 C         140.7491  142.1299  162.5053 C.3     1  UNL1        0.1498
      4 N         140.1053  143.4558  162.2268 N.3     1  UNL1       -0.2618
      5 C         140.9536  144.6824  162.0658 C.3     1  UNL1        0.0730
      6 C         141.5188  145.3673  163.2748 C.3     1  UNL1        0.0188
      7 C         138.6132  143.5551  162.1092 C.3     1  UNL1        0.0730
      8 C         137.8318  144.3407  163.1203 C.3     1  UNL1        0.0174
      9 C         138.6223  144.8683  165.5383 C.3     1  UNL1        0.0000
     10 C         137.9029  143.9736  164.5730 C.3     1  UNL1        0.0014
     11 C         140.1285  140.1185  166.4826 C.3     1  UNL1        0.1023
     12 C         140.0511  140.9406  167.7348 C.ar    1  UNL1       -0.0092
     13 C         139.4801  140.3463  168.9881 C.ar    1  UNL1       -0.0033
     14 C         139.4027  141.1684  170.2403 C.ar    1  UNL1       -0.0003
     15 C         139.8963  142.5849  170.2393 C.ar    1  UNL1       -0.0000
     16 C         140.4673  143.1792  168.9861 C.ar    1  UNL1       -0.0003
     17 C         140.5447  142.3571  167.7338 C.ar    1  UNL1       -0.0033
@<TRIPOS>BOND
     1     9    10    1
     2    10     8    1
     3     8     7    1
     4     7     4    1
     5     4     5    1
     6     5     6    1
     7     4     3    1
     8     3     1    1
     9     1     2    3
    10     2    11    1
    11    11    12    1
    12    12    13   ar
    13    13    14   ar
    14    14    15   ar
    15    15    16   ar
    16    16    17   ar
    17    17    12   ar
@<TRIPOS>MOLECULE
*****
 17 17 0 0 0
SMALL
GASTEIGER

@<TRIPOS>ATOM
      1 C         137.8350  140.9552  163.6778 C.1     1  UNL1       -0.0727
      2 C         138.0795  140.1407  164.9135 C.1     1  UNL1       -0.0849
      3 C         137.5905  141.7696  162.4421 C.3     1  UNL1        0.1498
      4 N         138.2271  143.1199  162.2957 N.3     1  UNL1       -0.2618
      5 C         139.3726  143.3101  161.3461 C.3     1  UNL1        0.0730
      6 C         140.5898  144.0707  161.7819 C.3     1  UNL1        0.0188
      7 C         137.7183  144.2800  163.0990 C.3     1  UNL1        0.0730
      8 C         137.8162  144.2565  164.5956 C.3     1  UNL1        0.0174
      9 C         139.9516  143.3104  165.7336 C.3     1  UNL1        0.0000
     10 C         139.1401  144.4813  165.2642 C.3     1  UNL1        0.0014
     11 C         138.3240  139.3262  166.1491 C.3     1  UNL1        0.1023
     12 C         139.5156  139.6140  167.0135 C.ar    1  UNL1       -0.0092
     13 C         139.3255  139.9748  168.4570 C.ar    1  UNL1       -0.0033
     14 C         140.5172  140.2626  169.3214 C.ar    1  UNL1       -0.0003
     15 C         141.8989  140.1897  168.7423 C.ar    1  UNL1       -0.0000
     16 C         142.0890  139.8290  167.2988 C.ar    1  UNL1       -0.0003
     17 C         140.8974  139.5412  166.4344 C.ar    1  UNL1       -0.0033
@<TRIPOS>BOND
     1     9    10    1
     2    10     8    1
     3     8     7    1
     4     7     4    1
     5     4     5    1
     6     5     6    1
     7     4     3    1
     8     3     1    1
     9     1     2    3
    10     2    11    1
    11    11    12    1
    12    12    13   ar
    13    13    14   ar
    14    14    15   ar
    15    15    16   ar
    16    16    17   ar
    17    17    12   ar
@<TRIPOS>MOLECULE
*****
 17 17 0 0 0
SMALL
GASTEIGER

@<TRIPOS>ATOM
      1 C         140.4066  142.9652  168.1622 C.1     1  UNL1       -0.0727
      2 C         140.1582  142.3890  166.7997 C.1     1  UNL1       -0.0849
      3 C         140.6550  143.5415  169.5246 C.3     1  UNL1        0.1498
      4 N         141.5184  142.8041  170.5048 N.3     1  UNL1       -0.2618
      5 C         142.9773  143.1350  170.6164 C.3     1  UNL1        0.0730
      6 C         143.9762  142.4216  169.7542 C.3     1  UNL1        0.0188
      7 C         140.9231  141.7359  171.3734 C.3     1  UNL1        0.0730
      8 C         140.4595  140.4459  170.7643 C.3     1  UNL1        0.0174
      9 C         142.4652  138.9938  169.9776 C.3     1  UNL1        0.0000
     10 C         141.2495  139.8123  169.6577 C.3     1  UNL1        0.0014
     11 C         139.9098  141.8128  165.4373 C.3     1  UNL1        0.1023
     12 C         139.6010  140.3528  165.2853 C.ar    1  UNL1       -0.0092
     13 C         140.3429  139.5306  164.2737 C.ar    1  UNL1       -0.0033
     14 C         140.0340  138.0706  164.1218 C.ar    1  UNL1       -0.0003
     15 C         138.9832  137.4329  164.9814 C.ar    1  UNL1       -0.0000
     16 C         138.2413  138.2551  165.9930 C.ar    1  UNL1       -0.0003
     17 C         138.5501  139.7151  166.1450 C.ar    1  UNL1       -0.0033
@<TRIPOS>BOND
     1     9    10    1
     2    10     8    1
     3     8     7    1
     4     7     4    1
     5     4     5    1
     6     5     6    1
     7     4     3    1
     8     3     1    1
     9     1     2    3
    10     2    11    1
    11    11    12    1
    12    12    13   ar
    13    13    14   ar
    14    14    15   ar
    15    15    16   ar
    16    16    17   ar
    17    17    12   ar
@<TRIPOS>MOLECULE
*****
 17 17 0 0 0
SMALL
GASTEIGER

@<TRIPOS>ATOM
      1 C         143.4990  142.4604  165.9251 C.1     1  UNL1       -0.0727
      2 C         142.5260  141.6078  166.6844 C.1     1  UNL1       -0.0849
      3 C         144.4719  143.3129  165.1658 C.3     1  UNL1        0.1498
      4 N         144.7028  143.0674  163.7042 N.3     1  UNL1       -0.2618
      5 C         144.1668  144.0317  162.6878 C.3     1  UNL1        0.0730
      6 C         142.7764  144.5762  162.8308 C.3     1  UNL1        0.0188
      7 C         145.4696  141.8576  163.2589 C.3     1  UNL1        0.0730
      8 C         144.7551  140.7214  162.5891 C.3     1  UNL1        0.0174
      9 C         144.8352  139.2147  164.7042 C.3     1  UNL1        0.0000
     10 C         144.1809  139.6068  163.4126 C.3     1  UNL1        0.0014
     11 C         141.5530  140.7553  167.4436 C.3     1  UNL1        0.1023
     12 C         140.6459  139.8148  166.7069 C.ar    1  UNL1       -0.0092
     13 C         141.1852  138.9765  165.5860 C.ar    1  UNL1       -0.0033
     14 C         140.2781  138.0360  164.8494 C.ar    1  UNL1       -0.0003
     15 C         138.8317  137.9339  165.2335 C.ar    1  UNL1       -0.0000
     16 C         138.2925  138.7722  166.3544 C.ar    1  UNL1       -0.0003
     17 C         139.1996  139.7127  167.0911 C.ar    1  UNL1       -0.0033
@<TRIPOS>BOND
     1     9    10    1
     2    10     8    1
     3     8     7    1
     4     7     4    1
     5     4     5    1
     6     5     6    1
     7     4     3    1
     8     3     1    1
     9     1     2    3
    10     2    11    1
    11    11    12    1
    12    12    13   ar
    13    13    14   ar
    14    14    15   ar
    15    15    16   ar
    16    16    17   ar
    17    17    12   ar
@<TRIPOS>MOLECULE
*****
 17 17 0 0 0
SMALL
GASTEIGER

@<TRIPOS>ATOM
      1 C         141.5398  137.9050  164.2633 C.1     1  UNL1       -0.0727
      2 C         142.4102  138.2563  165.4335 C.1     1  UNL1       -0.0849
      3 C         140.6695  137.5537  163.0933 C.3     1  UNL1        0.1498
      4 N         139.2450  138.0218  163.0508 N.3     1  UNL1       -0.2618
      5 C         138.4780  137.9741  161.7626 C.3     1  UNL1        0.0730
      6 C         137.6894  139.1688  161.3145 C.3     1  UNL1        0.0188
      7 C         138.5876  138.5377  164.2964 C.3     1  UNL1        0.0730
      8 C         138.6639  139.9969  164.6355 C.3     1  UNL1        0.0174
      9 C         139.1350  139.6088  167.1609 C.3     1  UNL1        0.0000
     10 C         139.3010  140.4359  165.9206 C.3     1  UNL1        0.0014
     11 C         143.2805  138.6076  166.6035 C.3     1  UNL1        0.1023
     12 C         142.8500  139.6758  167.5645 C.ar    1  UNL1       -0.0092
     13 C         142.7447  141.0998  167.1051 C.ar    1  UNL1       -0.0033
     14 C         142.3142  142.1681  168.0660 C.ar    1  UNL1       -0.0003
     15 C         141.9890  141.8124  169.4865 C.ar    1  UNL1       -0.0000
     16 C         142.0943  140.3884  169.9459 C.ar    1  UNL1       -0.0003
     17 C         142.5248  139.3201  168.9849 C.ar    1  UNL1       -0.0033
@<TRIPOS>BOND
     1     9    10    1
     2    10     8    1
     3     8     7    1
     4     7     4    1
     5     4     5    1
     6     5     6    1
     7     4     3    1
     8     3     1    1
     9     1     2    3
    10     2    11    1
    11    11    12    1
    12    12    13   ar
    13    13    14   ar
    14    14    15   ar
    15    15    16   ar
    16    16    17   ar
    17    17    12   ar
@<TRIPOS>MOLECULE
*****
 17 17 0 0 0
SMALL
GASTEIGER

@<TRIPOS>ATOM
      1 C         143.1833  139.0996  165.3926 C.1     1  UNL1       -0.0727
      2 C         142.8927  139.2660  166.8548 C.1     1  UNL1       -0.0849
      3 C         143.4739  138.9331  163.9305 C.3     1  UNL1        0.1498
      4 N         143.6607  140.1408  163.0606 N.3     1  UNL1       -0.2618
      5 C         142.5083  140.6765  162.2636 C.3     1  UNL1        0.0730
      6 C         141.4131  141.4391  162.9483 C.3     1  UNL1        0.0188
      7 C         144.9997  140.8127  162.9878 C.3     1  UNL1        0.0730
      8 C         145.4602  141.6914  164.1129 C.3     1  UNL1        0.0174
      9 C         143.7235  142.7064  165.7573 C.3     1  UNL1        0.0000
     10 C         144.6127  142.8466  164.5575 C.3     1  UNL1        0.0014
     11 C         142.6022  139.4325  168.3169 C.3     1  UNL1        0.1023
     12 C         142.2248  140.7796  168.8579 C.ar    1  UNL1       -0.0092
     13 C         143.1936  141.5434  169.7111 C.ar    1  UNL1       -0.0033
     14 C         142.8162  142.8906  170.2522 C.ar    1  UNL1       -0.0003
     15 C         141.4700  143.4740  169.9400 C.ar    1  UNL1       -0.0000
     16 C         140.5012  142.7101  169.0868 C.ar    1  UNL1       -0.0003
     17 C         140.8786  141.3630  168.5458 C.ar    1  UNL1       -0.0033
@<TRIPOS>BOND
     1     9    10    1
     2    10     8    1
     3     8     7    1
     4     7     4    1
     5     4     5    1
     6     5     6    1
     7     4     3    1
     8     3     1    1
     9     1     2    3
    10     2    11    1
    11    11    12    1
    12    12    13   ar
    13    13    14   ar
    14    14    15   ar
    15    15    16   ar
    16    16    17   ar
    17    17    12   ar
