@<TRIPOS>MOLECULE
*****
 29 31 0 0 0
SMALL
GASTEIGER

@<TRIPOS>ATOM
      1 C         141.0711  141.6538  168.0502 C.ar    1  UNL1        0.0519
      2 C         141.3787  141.6299  169.5181 C.ar    1  UNL1        0.0853
      3 C         140.6008  140.7309  170.4328 C.ar    1  UNL1        0.1045
      4 N         139.5153  139.8559  169.8797 N.ar    1  UNL1       -0.2436
      5 C         139.2077  139.8798  168.4117 C.ar    1  UNL1        0.0825
      6 C         138.1222  139.0048  167.8585 C.ar    1  UNL1        0.0191
      7 C         137.8146  139.0288  166.3906 C.ar    1  UNL1        0.0016
      8 C         138.5925  139.9277  165.4759 C.ar    1  UNL1        0.0016
      9 C         139.6780  140.8027  166.0291 C.ar    1  UNL1        0.0028
     10 C         139.9856  140.7788  167.4970 C.ar    1  UNL1        0.0309
     11 C         138.2849  139.9516  164.0079 C.ar    1  UNL1        0.0192
     12 C         138.5437  138.7364  163.1675 C.ar    1  UNL1        0.0031
     13 C         138.2361  138.7604  161.6995 C.ar    1  UNL1        0.0207
     14 C         137.6696  139.9995  161.0721 C.ar    1  UNL1        0.0989
     15 N         137.4108  141.2147  161.9126 N.ar    1  UNL1       -0.2423
     16 C         137.7184  141.1907  163.3804 C.ar    1  UNL1        0.0988
     17 C         142.4642  142.5049  170.0713 C.2     1  UNL1        0.2455
     18 N         143.8821  142.0159  170.0963 N.am    1  UNL1       -0.3252
     19 O         142.1319  143.8689  170.5995 O.2     1  UNL1       -0.2703
     20 H         144.1002  141.1206  169.7497 H       1  UNL1        0.1453
     21 H         144.5945  142.5902  170.4594 H       1  UNL1        0.1453
     22 N         141.8490  142.5528  167.1355 N.pl3   1  UNL1       -0.3325
     23 H         141.5239  143.4624  166.9457 H       1  UNL1        0.1468
     24 C         143.1224  142.0657  166.5099 C.3     1  UNL1        0.0870
     25 C         143.0728  141.1776  165.3020 C.3     1  UNL1        0.0195
     26 C         143.0581  138.9135  166.5762 C.3     1  UNL1        0.0001
     27 C         143.4998  139.7436  165.4075 C.3     1  UNL1        0.0017
     28 C         142.5963  141.7237  163.9887 C.3     1  UNL1        0.0017
     29 C         141.8533  140.8376  163.0333 C.3     1  UNL1        0.0001
@<TRIPOS>BOND
     1    26    27    1
     2    27    25    1
     3    25    28    1
     4    28    29    1
     5    25    24    1
     6    24    22    1
     7    22     1    1
     8     1     2   ar
     9     2    17    1
    10    17    18   am
    11    17    19    2
    12     2     3   ar
    13     3     4   ar
    14     4     5   ar
    15     5     6   ar
    16     6     7   ar
    17     7     8   ar
    18     8    11    1
    19    11    12   ar
    20    12    13   ar
    21    13    14   ar
    22    14    15   ar
    23    15    16   ar
    24     8     9   ar
    25     9    10   ar
    26    10     1   ar
    27    10     5   ar
    28    16    11   ar
    29    22    23    1
    30    18    20    1
    31    18    21    1
@<TRIPOS>MOLECULE
*****
 29 31 0 0 0
SMALL
GASTEIGER

@<TRIPOS>ATOM
      1 C         140.6948  141.6889  167.7057 C.ar    1  UNL1        0.0519
      2 C         140.6111  142.0127  169.1679 C.ar    1  UNL1        0.0853
      3 C         139.6780  141.2424  170.0544 C.ar    1  UNL1        0.1045
      4 N         138.8286  140.1483  169.4787 N.ar    1  UNL1       -0.2436
      5 C         138.9123  139.8245  168.0164 C.ar    1  UNL1        0.0825
      6 C         138.0630  138.7304  167.4407 C.ar    1  UNL1        0.0191
      7 C         138.1467  138.4066  165.9785 C.ar    1  UNL1        0.0016
      8 C         139.0798  139.1769  165.0920 C.ar    1  UNL1        0.0016
      9 C         139.9292  140.2710  165.6677 C.ar    1  UNL1        0.0028
     10 C         139.8454  140.5948  167.1299 C.ar    1  UNL1        0.0309
     11 C         139.1636  138.8531  163.6297 C.ar    1  UNL1        0.0192
     12 C         138.1309  139.3884  162.6827 C.ar    1  UNL1        0.0031
     13 C         138.2146  139.0645  161.2204 C.ar    1  UNL1        0.0207
     14 C         139.3311  138.2054  160.7053 C.ar    1  UNL1        0.0989
     15 N         140.3638  137.6701  161.6524 N.ar    1  UNL1       -0.2423
     16 C         140.2801  137.9939  163.1146 C.ar    1  UNL1        0.0988
     17 C         141.4604  143.1069  169.7437 C.2     1  UNL1        0.2455
     18 N         140.8178  144.3509  170.2815 N.am    1  UNL1       -0.3252
     19 O         142.9524  142.9569  169.7816 O.2     1  UNL1       -0.2703
     20 H         139.8385  144.4494  170.2566 H       1  UNL1        0.1453
     21 H         141.3752  145.0691  170.6594 H       1  UNL1        0.1453
     22 N         141.6279  142.4593  166.8192 N.pl3   1  UNL1       -0.3325
     23 H         141.3017  143.2477  166.3280 H       1  UNL1        0.1468
     24 C         143.0581  142.0283  166.6811 C.3     1  UNL1        0.0870
     25 C         143.5787  141.5720  165.3504 C.3     1  UNL1        0.0195
     26 C         145.6375  141.8152  163.7844 C.3     1  UNL1        0.0001
     27 C         144.5291  142.4393  164.5793 C.3     1  UNL1        0.0017
     28 C         143.1489  140.2483  164.7907 C.3     1  UNL1        0.0017
     29 C         143.4328  138.9856  165.5491 C.3     1  UNL1        0.0001
@<TRIPOS>BOND
     1    26    27    1
     2    27    25    1
     3    25    28    1
     4    28    29    1
     5    25    24    1
     6    24    22    1
     7    22     1    1
     8     1     2   ar
     9     2    17    1
    10    17    18   am
    11    17    19    2
    12     2     3   ar
    13     3     4   ar
    14     4     5   ar
    15     5     6   ar
    16     6     7   ar
    17     7     8   ar
    18     8    11    1
    19    11    12   ar
    20    12    13   ar
    21    13    14   ar
    22    14    15   ar
    23    15    16   ar
    24     8     9   ar
    25     9    10   ar
    26    10     1   ar
    27    10     5   ar
    28    16    11   ar
    29    22    23    1
    30    18    20    1
    31    18    21    1
@<TRIPOS>MOLECULE
*****
 29 31 0 0 0
SMALL
GASTEIGER

@<TRIPOS>ATOM
      1 C         139.3889  139.2779  163.6834 C.ar    1  UNL1        0.0519
      2 C         139.7748  138.4121  162.5209 C.ar    1  UNL1        0.0853
      3 C         141.0762  137.6665  162.5404 C.ar    1  UNL1        0.1045
      4 N         141.9918  137.7867  163.7224 N.ar    1  UNL1       -0.2436
      5 C         141.6060  138.6525  164.8850 C.ar    1  UNL1        0.0825
      6 C         142.5216  138.7727  166.0670 C.ar    1  UNL1        0.0191
      7 C         142.1358  139.6385  167.2295 C.ar    1  UNL1        0.0016
      8 C         140.8343  140.3841  167.2100 C.ar    1  UNL1        0.0016
      9 C         139.9187  140.2640  166.0280 C.ar    1  UNL1        0.0028
     10 C         140.3046  139.3982  164.8655 C.ar    1  UNL1        0.0309
     11 C         140.4485  141.2500  168.3726 C.ar    1  UNL1        0.0192
     12 C         140.8364  142.6988  168.3900 C.ar    1  UNL1        0.0031
     13 C         140.4506  143.5647  169.5526 C.ar    1  UNL1        0.0207
     14 C         139.6770  142.9816  170.6977 C.ar    1  UNL1        0.0989
     15 N         139.2891  141.5326  170.6803 N.ar    1  UNL1       -0.2423
     16 C         139.6749  140.6669  169.5178 C.ar    1  UNL1        0.0988
     17 C         138.8591  138.2919  161.3388 C.2     1  UNL1        0.2455
     18 N         139.4145  138.3788  159.9481 N.am    1  UNL1       -0.3252
     19 O         137.3883  138.0848  161.5474 O.2     1  UNL1       -0.2703
     20 H         140.3799  138.5147  159.8111 H       1  UNL1        0.1453
     21 H         138.8136  138.2999  159.1722 H       1  UNL1        0.1453
     22 N         138.0875  140.0235  163.6639 N.pl3   1  UNL1       -0.3325
     23 H         137.2897  139.6323  164.0877 H       1  UNL1        0.1468
     24 C         138.0018  141.3653  162.9987 C.3     1  UNL1        0.0870
     25 C         138.7591  142.5313  163.5617 C.3     1  UNL1        0.0195
     26 C         138.6364  144.6888  165.0039 C.3     1  UNL1        0.0001
     27 C         138.2236  143.2687  164.7530 C.3     1  UNL1        0.0017
     28 C         140.0520  142.9598  162.9333 C.3     1  UNL1        0.0017
     29 C         141.3502  142.7050  163.6402 C.3     1  UNL1        0.0001
@<TRIPOS>BOND
     1    26    27    1
     2    27    25    1
     3    25    28    1
     4    28    29    1
     5    25    24    1
     6    24    22    1
     7    22     1    1
     8     1     2   ar
     9     2    17    1
    10    17    18   am
    11    17    19    2
    12     2     3   ar
    13     3     4   ar
    14     4     5   ar
    15     5     6   ar
    16     6     7   ar
    17     7     8   ar
    18     8    11    1
    19    11    12   ar
    20    12    13   ar
    21    13    14   ar
    22    14    15   ar
    23    15    16   ar
    24     8     9   ar
    25     9    10   ar
    26    10     1   ar
    27    10     5   ar
    28    16    11   ar
    29    22    23    1
    30    18    20    1
    31    18    21    1
@<TRIPOS>MOLECULE
*****
 29 31 0 0 0
SMALL
GASTEIGER

@<TRIPOS>ATOM
      1 C         141.2847  140.5010  168.3776 C.ar    1  UNL1        0.0519
      2 C         140.8314  140.6923  169.7945 C.ar    1  UNL1        0.0853
      3 C         139.4481  140.2788  170.2017 C.ar    1  UNL1        0.1045
      4 N         138.5183  139.6741  169.1920 N.ar    1  UNL1       -0.2436
      5 C         138.9717  139.4828  167.7749 C.ar    1  UNL1        0.0825
      6 C         138.0418  138.8781  166.7651 C.ar    1  UNL1        0.0191
      7 C         138.4952  138.6869  165.3482 C.ar    1  UNL1        0.0016
      8 C         139.8784  139.1003  164.9410 C.ar    1  UNL1        0.0016
      9 C         140.8082  139.7050  165.9508 C.ar    1  UNL1        0.0028
     10 C         140.3549  139.8963  167.3677 C.ar    1  UNL1        0.0309
     11 C         140.3318  138.9090  163.5239 C.ar    1  UNL1        0.0192
     12 C         140.3303  140.0690  162.5730 C.ar    1  UNL1        0.0031
     13 C         140.7836  139.8777  161.1559 C.ar    1  UNL1        0.0207
     14 C         141.2384  138.5264  160.6899 C.ar    1  UNL1        0.0989
     15 N         141.2399  137.3664  161.6410 N.ar    1  UNL1       -0.2423
     16 C         140.7866  137.5577  163.0580 C.ar    1  UNL1        0.0988
     17 C         141.7612  141.2970  170.8044 C.2     1  UNL1        0.2455
     18 N         142.7096  140.4220  171.5692 N.am    1  UNL1       -0.3252
     19 O         141.7427  142.7767  171.0495 O.2     1  UNL1       -0.2703
     20 H         142.7217  139.4508  171.4084 H       1  UNL1        0.1453
     21 H         143.3199  140.8188  172.2320 H       1  UNL1        0.1453
     22 N         142.6679  140.9144  167.9704 N.pl3   1  UNL1       -0.3325
     23 H         143.4239  140.2969  168.0981 H       1  UNL1        0.1468
     24 C         142.8993  142.2689  167.3686 C.3     1  UNL1        0.0870
     25 C         142.9310  142.4317  165.8778 C.3     1  UNL1        0.0195
     26 C         143.9368  140.5620  164.3802 C.3     1  UNL1        0.0001
     27 C         144.0788  141.8773  165.0871 C.3     1  UNL1        0.0017
     28 C         141.8149  143.1488  165.1777 C.3     1  UNL1        0.0017
     29 C         140.4570  143.2222  165.8108 C.3     1  UNL1        0.0001
@<TRIPOS>BOND
     1    26    27    1
     2    27    25    1
     3    25    28    1
     4    28    29    1
     5    25    24    1
     6    24    22    1
     7    22     1    1
     8     1     2   ar
     9     2    17    1
    10    17    18   am
    11    17    19    2
    12     2     3   ar
    13     3     4   ar
    14     4     5   ar
    15     5     6   ar
    16     6     7   ar
    17     7     8   ar
    18     8    11    1
    19    11    12   ar
    20    12    13   ar
    21    13    14   ar
    22    14    15   ar
    23    15    16   ar
    24     8     9   ar
    25     9    10   ar
    26    10     1   ar
    27    10     5   ar
    28    16    11   ar
    29    22    23    1
    30    18    20    1
    31    18    21    1
@<TRIPOS>MOLECULE
*****
 29 31 0 0 0
SMALL
GASTEIGER

@<TRIPOS>ATOM
      1 C         141.1427  141.6944  167.7190 C.ar    1  UNL1        0.0519
      2 C         141.4631  141.7598  169.1829 C.ar    1  UNL1        0.0853
      3 C         140.6977  140.9137  170.1567 C.ar    1  UNL1        0.1045
      4 N         139.6119  140.0023  169.6666 N.ar    1  UNL1       -0.2436
      5 C         139.2915  139.9369  168.2026 C.ar    1  UNL1        0.0825
      6 C         138.2057  139.0254  167.7125 C.ar    1  UNL1        0.0191
      7 C         137.8853  138.9600  166.2486 C.ar    1  UNL1        0.0016
      8 C         138.6507  139.8061  165.2748 C.ar    1  UNL1        0.0016
      9 C         139.7365  140.7176  165.7649 C.ar    1  UNL1        0.0028
     10 C         140.0569  140.7829  167.2288 C.ar    1  UNL1        0.0309
     11 C         138.3303  139.7407  163.8108 C.ar    1  UNL1        0.0192
     12 C         138.6095  138.4863  163.0373 C.ar    1  UNL1        0.0031
     13 C         138.2890  138.4209  161.5733 C.ar    1  UNL1        0.0207
     14 C         137.6894  139.6099  160.8830 C.ar    1  UNL1        0.0989
     15 N         137.4103  140.8644  161.6566 N.ar    1  UNL1       -0.2423
     16 C         137.7307  140.9298  163.1205 C.ar    1  UNL1        0.0988
     17 C         142.5490  142.6713  169.6731 C.2     1  UNL1        0.2455
     18 N         142.2356  143.7366  170.6814 N.am    1  UNL1       -0.3252
     19 O         143.9482  142.5174  169.1549 O.2     1  UNL1       -0.2703
     20 H         141.3172  143.8376  171.0215 H       1  UNL1        0.1453
     21 H         142.9482  144.3349  171.0031 H       1  UNL1        0.1453
     22 N         141.9082  142.5405  166.7452 N.pl3   1  UNL1       -0.3325
     23 H         141.6100  143.4582  166.5499 H       1  UNL1        0.1468
     24 C         143.1279  141.9883  166.0689 C.3     1  UNL1        0.0870
     25 C         143.4384  142.3716  164.6523 C.3     1  UNL1        0.0195
     26 C         141.9087  141.2757  162.8610 C.3     1  UNL1        0.0001
     27 C         142.3320  142.4820  163.6456 C.3     1  UNL1        0.0017
     28 C         144.8553  142.6445  164.2425 C.3     1  UNL1        0.0017
     29 C         145.7253  141.5227  163.7581 C.3     1  UNL1        0.0001
@<TRIPOS>BOND
     1    26    27    1
     2    27    25    1
     3    25    28    1
     4    28    29    1
     5    25    24    1
     6    24    22    1
     7    22     1    1
     8     1     2   ar
     9     2    17    1
    10    17    18   am
    11    17    19    2
    12     2     3   ar
    13     3     4   ar
    14     4     5   ar
    15     5     6   ar
    16     6     7   ar
    17     7     8   ar
    18     8    11    1
    19    11    12   ar
    20    12    13   ar
    21    13    14   ar
    22    14    15   ar
    23    15    16   ar
    24     8     9   ar
    25     9    10   ar
    26    10     1   ar
    27    10     5   ar
    28    16    11   ar
    29    22    23    1
    30    18    20    1
    31    18    21    1
@<TRIPOS>MOLECULE
*****
 29 31 0 0 0
SMALL
GASTEIGER

@<TRIPOS>ATOM
      1 C         140.3295  144.3339  163.2331 C.ar    1  UNL1        0.0519
      2 C         140.9931  144.7787  161.9636 C.ar    1  UNL1        0.0853
      3 C         142.4236  144.4143  161.6975 C.ar    1  UNL1        0.1045
      4 N         143.1905  143.6049  162.7009 N.ar    1  UNL1       -0.2436
      5 C         142.5269  143.1601  163.9705 C.ar    1  UNL1        0.0825
      6 C         143.2937  142.3508  164.9739 C.ar    1  UNL1        0.0191
      7 C         142.6301  141.9060  166.2434 C.ar    1  UNL1        0.0016
      8 C         141.1996  142.2705  166.5095 C.ar    1  UNL1        0.0016
      9 C         140.4327  143.0798  165.5061 C.ar    1  UNL1        0.0028
     10 C         141.0964  143.5246  164.2366 C.ar    1  UNL1        0.0309
     11 C         140.5360  141.8256  167.7791 C.ar    1  UNL1        0.0192
     12 C         140.4779  142.7501  168.9588 C.ar    1  UNL1        0.0031
     13 C         139.8143  142.3053  170.2284 C.ar    1  UNL1        0.0207
     14 C         139.2087  140.9359  170.3182 C.ar    1  UNL1        0.0989
     15 N         139.2668  140.0113  169.1383 N.ar    1  UNL1       -0.2423
     16 C         139.9304  140.4562  167.8689 C.ar    1  UNL1        0.0988
     17 C         140.2262  145.5881  160.9601 C.2     1  UNL1        0.2455
     18 N         140.3976  145.3224  159.4938 N.am    1  UNL1       -0.3252
     19 O         139.2881  146.6631  161.4229 O.2     1  UNL1       -0.2703
     20 H         141.0133  144.6168  159.1900 H       1  UNL1        0.1453
     21 H         139.8943  145.8536  158.8352 H       1  UNL1        0.1453
     22 N         138.8990  144.6984  163.4992 N.pl3   1  UNL1       -0.3325
     23 H         138.6860  145.4679  164.0752 H       1  UNL1        0.1468
     24 C         137.7929  143.8905  162.8875 C.3     1  UNL1        0.0870
     25 C         137.8458  142.3921  162.9318 C.3     1  UNL1        0.0195
     26 C         138.4877  142.3389  160.4149 C.3     1  UNL1        0.0001
     27 C         138.1614  141.6157  161.6878 C.3     1  UNL1        0.0017
     28 C         137.5830  141.6701  164.2202 C.3     1  UNL1        0.0017
     29 C         138.2070  140.3290  164.4691 C.3     1  UNL1        0.0001
@<TRIPOS>BOND
     1    26    27    1
     2    27    25    1
     3    25    28    1
     4    28    29    1
     5    25    24    1
     6    24    22    1
     7    22     1    1
     8     1     2   ar
     9     2    17    1
    10    17    18   am
    11    17    19    2
    12     2     3   ar
    13     3     4   ar
    14     4     5   ar
    15     5     6   ar
    16     6     7   ar
    17     7     8   ar
    18     8    11    1
    19    11    12   ar
    20    12    13   ar
    21    13    14   ar
    22    14    15   ar
    23    15    16   ar
    24     8     9   ar
    25     9    10   ar
    26    10     1   ar
    27    10     5   ar
    28    16    11   ar
    29    22    23    1
    30    18    20    1
    31    18    21    1
@<TRIPOS>MOLECULE
*****
 29 31 0 0 0
SMALL
GASTEIGER

@<TRIPOS>ATOM
      1 C         141.3529  139.2539  163.7954 C.ar    1  UNL1        0.0519
      2 C         141.0413  138.4661  162.5575 C.ar    1  UNL1        0.0853
      3 C         139.7720  137.6711  162.4742 C.ar    1  UNL1        0.1045
      4 N         138.8144  137.6638  163.6286 N.ar    1  UNL1       -0.2436
      5 C         139.1260  138.4515  164.8666 C.ar    1  UNL1        0.0825
      6 C         138.1684  138.4442  166.0210 C.ar    1  UNL1        0.0191
      7 C         138.4799  139.2320  167.2589 C.ar    1  UNL1        0.0016
      8 C         139.7492  140.0271  167.3423 C.ar    1  UNL1        0.0016
      9 C         140.7068  140.0344  166.1878 C.ar    1  UNL1        0.0028
     10 C         140.3952  139.2466  164.9499 C.ar    1  UNL1        0.0309
     11 C         140.0607  140.8148  168.5802 C.ar    1  UNL1        0.0192
     12 C         140.4504  142.2592  168.4717 C.ar    1  UNL1        0.0031
     13 C         140.7620  143.0470  169.7097 C.ar    1  UNL1        0.0207
     14 C         140.6838  142.3903  171.0560 C.ar    1  UNL1        0.0989
     15 N         140.2941  140.9459  171.1644 N.ar    1  UNL1       -0.2423
     16 C         139.9826  140.1582  169.9265 C.ar    1  UNL1        0.0988
     17 C         141.9989  138.4734  161.4030 C.2     1  UNL1        0.2455
     18 N         142.8476  137.2682  161.1249 N.am    1  UNL1       -0.3252
     19 O         142.1079  139.6858  160.5266 O.2     1  UNL1       -0.2703
     20 H         142.7760  136.4724  161.7001 H       1  UNL1        0.1453
     21 H         143.4761  137.2730  160.3672 H       1  UNL1        0.1453
     22 N         142.6221  140.0489  163.8788 N.pl3   1  UNL1       -0.3325
     23 H         143.4255  139.6523  164.2867 H       1  UNL1        0.1468
     24 C         142.6672  141.4484  163.3406 C.3     1  UNL1        0.0870
     25 C         142.1587  142.5885  164.1722 C.3     1  UNL1        0.0195
     26 C         140.0031  143.6456  165.1651 C.3     1  UNL1        0.0001
     27 C         140.7509  143.0756  163.9964 C.3     1  UNL1        0.0017
     28 C         143.0580  143.2415  165.1797 C.3     1  UNL1        0.0017
     29 C         143.4693  142.4942  166.4135 C.3     1  UNL1        0.0001
@<TRIPOS>BOND
     1    26    27    1
     2    27    25    1
     3    25    28    1
     4    28    29    1
     5    25    24    1
     6    24    22    1
     7    22     1    1
     8     1     2   ar
     9     2    17    1
    10    17    18   am
    11    17    19    2
    12     2     3   ar
    13     3     4   ar
    14     4     5   ar
    15     5     6   ar
    16     6     7   ar
    17     7     8   ar
    18     8    11    1
    19    11    12   ar
    20    12    13   ar
    21    13    14   ar
    22    14    15   ar
    23    15    16   ar
    24     8     9   ar
    25     9    10   ar
    26    10     1   ar
    27    10     5   ar
    28    16    11   ar
    29    22    23    1
    30    18    20    1
    31    18    21    1
@<TRIPOS>MOLECULE
*****
 29 31 0 0 0
SMALL
GASTEIGER

@<TRIPOS>ATOM
      1 C         140.4561  144.3224  163.4829 C.ar    1  UNL1        0.0519
      2 C         139.8608  144.3447  162.1064 C.ar    1  UNL1        0.0853
      3 C         138.9602  143.2310  161.6606 C.ar    1  UNL1        0.1045
      4 N         138.6551  142.0950  162.5913 N.ar    1  UNL1       -0.2436
      5 C         139.2505  142.0727  163.9680 C.ar    1  UNL1        0.0825
      6 C         138.9454  140.9367  164.8987 C.ar    1  UNL1        0.0191
      7 C         139.5407  140.9144  166.2753 C.ar    1  UNL1        0.0016
      8 C         140.4413  142.0281  166.7211 C.ar    1  UNL1        0.0016
      9 C         140.7464  143.1641  165.7903 C.ar    1  UNL1        0.0028
     10 C         140.1510  143.1864  164.4138 C.ar    1  UNL1        0.0309
     11 C         141.0367  142.0057  168.0978 C.ar    1  UNL1        0.0192
     12 C         142.5081  142.2311  168.2823 C.ar    1  UNL1        0.0031
     13 C         143.1035  142.2088  169.6589 C.ar    1  UNL1        0.0207
     14 C         142.2274  141.9610  170.8510 C.ar    1  UNL1        0.0989
     15 N         140.7559  141.7357  170.6664 N.ar    1  UNL1       -0.2423
     16 C         140.1605  141.7580  169.2898 C.ar    1  UNL1        0.0988
     17 C         140.1659  145.4808  161.1755 C.2     1  UNL1        0.2455
     18 N         141.4061  145.4472  160.3325 N.am    1  UNL1       -0.3252
     19 O         139.2308  146.6503  161.0877 O.2     1  UNL1       -0.2703
     20 H         142.0199  144.6796  160.3902 H       1  UNL1        0.1453
     21 H         141.6064  146.1928  159.7216 H       1  UNL1        0.1453
     22 N         141.3567  145.4361  163.9287 N.pl3   1  UNL1       -0.3325
     23 H         140.9901  146.1873  164.4490 H       1  UNL1        0.1468
     24 C         142.8157  145.4053  163.5819 C.3     1  UNL1        0.0870
     25 C         143.5333  144.0926  163.4735 C.3     1  UNL1        0.0195
     26 C         142.8795  142.3201  161.6900 C.3     1  UNL1        0.0001
     27 C         143.7463  143.4630  162.1288 C.3     1  UNL1        0.0017
     28 C         144.0379  143.4094  164.7099 C.3     1  UNL1        0.0017
     29 C         145.0573  142.3146  164.5989 C.3     1  UNL1        0.0001
@<TRIPOS>BOND
     1    26    27    1
     2    27    25    1
     3    25    28    1
     4    28    29    1
     5    25    24    1
     6    24    22    1
     7    22     1    1
     8     1     2   ar
     9     2    17    1
    10    17    18   am
    11    17    19    2
    12     2     3   ar
    13     3     4   ar
    14     4     5   ar
    15     5     6   ar
    16     6     7   ar
    17     7     8   ar
    18     8    11    1
    19    11    12   ar
    20    12    13   ar
    21    13    14   ar
    22    14    15   ar
    23    15    16   ar
    24     8     9   ar
    25     9    10   ar
    26    10     1   ar
    27    10     5   ar
    28    16    11   ar
    29    22    23    1
    30    18    20    1
    31    18    21    1
@<TRIPOS>MOLECULE
*****
 29 31 0 0 0
SMALL
GASTEIGER

@<TRIPOS>ATOM
      1 C         140.2881  141.7808  167.5466 C.ar    1  UNL1        0.0519
      2 C         140.2540  142.0104  169.0285 C.ar    1  UNL1        0.0853
      3 C         139.5078  141.0604  169.9177 C.ar    1  UNL1        0.1045
      4 N         138.7956  139.8808  169.3249 N.ar    1  UNL1       -0.2436
      5 C         138.8297  139.6511  167.8429 C.ar    1  UNL1        0.0825
      6 C         138.1176  138.4716  167.2502 C.ar    1  UNL1        0.0191
      7 C         138.1517  138.2420  165.7683 C.ar    1  UNL1        0.0016
      8 C         138.8979  139.1920  164.8791 C.ar    1  UNL1        0.0016
      9 C         139.6101  140.3716  165.4719 C.ar    1  UNL1        0.0028
     10 C         139.5760  140.6012  166.9538 C.ar    1  UNL1        0.0309
     11 C         138.9320  138.9624  163.3971 C.ar    1  UNL1        0.0192
     12 C         137.9715  139.6893  162.5033 C.ar    1  UNL1        0.0031
     13 C         138.0056  139.4596  161.0213 C.ar    1  UNL1        0.0207
     14 C         139.0002  138.5031  160.4333 C.ar    1  UNL1        0.0989
     15 N         139.9607  137.7761  161.3272 N.ar    1  UNL1       -0.2423
     16 C         139.9266  138.0058  162.8091 C.ar    1  UNL1        0.0988
     17 C         140.9662  143.1900  169.6213 C.2     1  UNL1        0.2455
     18 N         140.1791  144.3409  170.1744 N.am    1  UNL1       -0.3252
     19 O         142.4653  143.2187  169.6610 O.2     1  UNL1       -0.2703
     20 H         139.1951  144.3221  170.1483 H       1  UNL1        0.1453
     21 H         140.6464  145.1152  170.5635 H       1  UNL1        0.1453
     22 N         141.0343  142.7308  166.6574 N.pl3   1  UNL1       -0.3325
     23 H         142.0158  142.6817  166.5983 H       1  UNL1        0.1468
     24 C         140.2851  143.7557  165.8584 C.3     1  UNL1        0.0870
     25 C         140.3842  143.7589  164.3617 C.3     1  UNL1        0.0195
     26 C         142.5195  145.1262  163.7952 C.3     1  UNL1        0.0001
     27 C         141.7263  143.8567  163.6991 C.3     1  UNL1        0.0017
     28 C         139.1410  143.6643  163.5275 C.3     1  UNL1        0.0017
     29 C         137.8676  143.1543  164.1344 C.3     1  UNL1        0.0001
@<TRIPOS>BOND
     1    26    27    1
     2    27    25    1
     3    25    28    1
     4    28    29    1
     5    25    24    1
     6    24    22    1
     7    22     1    1
     8     1     2   ar
     9     2    17    1
    10    17    18   am
    11    17    19    2
    12     2     3   ar
    13     3     4   ar
    14     4     5   ar
    15     5     6   ar
    16     6     7   ar
    17     7     8   ar
    18     8    11    1
    19    11    12   ar
    20    12    13   ar
    21    13    14   ar
    22    14    15   ar
    23    15    16   ar
    24     8     9   ar
    25     9    10   ar
    26    10     1   ar
    27    10     5   ar
    28    16    11   ar
    29    22    23    1
    30    18    20    1
    31    18    21    1
