@<TRIPOS>MOLECULE
*****
 38 42 0 0 0
SMALL
GASTEIGER

@<TRIPOS>ATOM
      1 C         143.6667  140.4653  160.1829 C.3     1  UNL1        0.0666
      2 S         144.1557  139.4992  161.2209 S.3     1  UNL1       -0.0756
      3 C         144.8927  141.1203  163.9556 C.3     1  UNL1        0.1337
      4 N         143.7790  140.1290  163.7912 N.ar    1  UNL1       -0.2918
      5 C         143.4403  139.3838  162.5343 C.ar    1  UNL1        0.1930
      6 N         142.2605  138.5030  162.8212 N.ar    1  UNL1       -0.1224
      7 N         141.8701  138.7038  164.2555 N.ar    1  UNL1       -0.1328
      8 C         142.8086  139.7087  164.8551 C.ar    1  UNL1        0.1433
      9 C         142.7814  140.2060  166.2700 C.3     1  UNL1        0.0622
     10 C         142.6150  139.2367  167.4026 C.3     1  UNL1        0.0291
     11 C         142.5878  139.7340  168.8175 C.3     1  UNL1        0.0954
     12 N         142.7270  141.2007  169.0997 N.am    1  UNL1       -0.2644
     13 C         142.6998  141.6980  170.5146 C.2     1  UNL1        0.3008
     14 N         142.5334  140.7287  171.6472 N.am    1  UNL1       -0.3132
     15 O         142.8391  143.1645  170.7970 O.2     1  UNL1       -0.2528
     16 C         142.8934  142.1700  167.9671 C.3     1  UNL1        0.0954
     17 C         142.9206  141.6726  166.5522 C.3     1  UNL1        0.0291
     18 H         142.4421  139.7661  171.4619 H       1  UNL1        0.1465
     19 H         142.5156  141.0551  172.5759 H       1  UNL1        0.1465
     20 C         142.6748  141.5273  160.5548 C.3     1  UNL1        0.0294
     21 C         143.1492  142.8267  161.1349 C.3     1  UNL1        0.0730
     22 N         142.2981  143.5593  162.1293 N.3     1  UNL1       -0.2726
     23 C         142.2401  145.0468  162.3137 C.3     1  UNL1        0.0721
     24 C         141.2617  145.3398  163.4123 C.3     1  UNL1        0.0190
     25 C         140.7151  144.0335  163.9069 C.3     1  UNL1        0.0201
     26 C         139.8115  144.6255  164.9475 C.3     1  UNL1        0.0061
     27 C         139.8695  143.1380  164.7631 C.3     1  UNL1        0.0237
     28 C         141.3556  142.9330  163.1139 C.3     1  UNL1        0.0724
     29 C         139.4148  141.7622  165.1510 C.ar    1  UNL1       -0.0225
     30 C         138.8711  140.8304  164.1089 C.ar    1  UNL1       -0.0043
     31 C         138.4165  139.4546  164.4968 C.ar    1  UNL1        0.0035
     32 C         138.5055  139.0107  165.9268 C.ar    1  UNL1        0.0714
     33 C         139.0492  139.9426  166.9690 C.ar    1  UNL1        0.0035
     34 C         139.5038  141.3183  166.5811 C.ar    1  UNL1       -0.0043
     35 C         138.0508  137.6349  166.3147 C.3     1  UNL1        0.4186
     36 F         137.5961  136.2591  166.7026 F       1  UNL1       -0.1659
     37 F         138.9812  137.0411  165.2990 F       1  UNL1       -0.1659
     38 F         137.1204  138.2288  167.3304 F       1  UNL1       -0.1659
@<TRIPOS>BOND
     1     3     4    1
     2     4     5   ar
     3     5     2    1
     4     2     1    1
     5     1    20    1
     6    20    21    1
     7    21    22    1
     8    22    23    1
     9    23    24    1
    10    25    24    1
    11    25    26    1
    12    26    27    1
    13    27    29    1
    14    29    30   ar
    15    30    31   ar
    16    31    32   ar
    17    32    35    1
    18    35    36    1
    19    35    37    1
    20    35    38    1
    21    32    33   ar
    22    33    34   ar
    23    25    28    1
    24     5     6   ar
    25     6     7   ar
    26     7     8   ar
    27     8     9    1
    28     9    10    1
    29    10    11    1
    30    11    12    1
    31    12    13   am
    32    13    14   am
    33    13    15    2
    34    12    16    1
    35    16    17    1
    36     8     4   ar
    37    17     9    1
    38    28    22    1
    39    27    25    1
    40    34    29   ar
    41    14    18    1
    42    14    19    1
@<TRIPOS>MOLECULE
*****
 38 42 0 0 0
SMALL
GASTEIGER

@<TRIPOS>ATOM
      1 C         142.8164  139.3464  159.9972 C.3     1  UNL1        0.0666
      2 S         143.0816  138.6559  161.3021 S.3     1  UNL1       -0.0756
      3 C         141.6635  138.6048  164.2408 C.3     1  UNL1        0.1337
      4 N         142.8539  139.4297  163.8505 N.ar    1  UNL1       -0.2918
      5 C         143.5058  139.4532  162.4998 C.ar    1  UNL1        0.1930
      6 N         144.6563  140.4139  162.5569 N.ar    1  UNL1       -0.1224
      7 N         144.7156  140.9842  163.9430 N.ar    1  UNL1       -0.1328
      8 C         143.6016  140.3759  164.7426 C.ar    1  UNL1        0.1433
      9 C         143.2901  140.6634  166.1814 C.3     1  UNL1        0.0622
     10 C         143.0014  139.5348  167.1263 C.3     1  UNL1        0.0291
     11 C         142.6899  139.8223  168.5652 C.3     1  UNL1        0.0954
     12 N         142.6671  141.2385  169.0591 N.am    1  UNL1       -0.2644
     13 C         142.3556  141.5260  170.4979 C.2     1  UNL1        0.3008
     14 N         142.0668  140.3974  171.4428 N.am    1  UNL1       -0.3132
     15 O         142.3328  142.9422  170.9919 O.2     1  UNL1       -0.2528
     16 C         142.9558  142.3672  168.1142 C.3     1  UNL1        0.0954
     17 C         143.2673  142.0796  166.6753 C.3     1  UNL1        0.0291
     18 H         142.0818  139.4679  171.1186 H       1  UNL1        0.1465
     19 H         141.8624  140.5861  172.3872 H       1  UNL1        0.1465
     20 C         141.8189  140.4647  159.9295 C.3     1  UNL1        0.0294
     21 C         142.2858  141.8896  159.9700 C.3     1  UNL1        0.0730
     22 N         141.8238  142.7993  161.0695 N.3     1  UNL1       -0.2726
     23 C         142.0419  144.2818  161.1375 C.3     1  UNL1        0.0721
     24 C         141.4155  144.7849  162.4041 C.3     1  UNL1        0.0190
     25 C         140.8102  143.6133  163.1191 C.3     1  UNL1        0.0201
     26 C         140.2875  144.3955  164.2873 C.3     1  UNL1        0.0061
     27 C         140.0693  142.9130  164.2194 C.3     1  UNL1        0.0237
     28 C         141.0626  142.3862  162.2942 C.3     1  UNL1        0.0724
     29 C         139.5157  141.6528  164.8155 C.ar    1  UNL1       -0.0225
     30 C         139.8228  141.2992  166.2405 C.ar    1  UNL1       -0.0043
     31 C         139.2692  140.0390  166.8365 C.ar    1  UNL1        0.0035
     32 C         138.4084  139.1324  166.0075 C.ar    1  UNL1        0.0714
     33 C         138.1013  139.4860  164.5825 C.ar    1  UNL1        0.0035
     34 C         138.6549  140.7462  163.9865 C.ar    1  UNL1       -0.0043
     35 C         137.8548  137.8722  166.6036 C.3     1  UNL1        0.4186
     36 F         137.3011  136.6118  167.1996 F       1  UNL1       -0.1659
     37 F         137.2577  138.6660  167.7275 F       1  UNL1       -0.1659
     38 F         138.4518  137.0783  165.4797 F       1  UNL1       -0.1659
@<TRIPOS>BOND
     1     3     4    1
     2     4     5   ar
     3     5     2    1
     4     2     1    1
     5     1    20    1
     6    20    21    1
     7    21    22    1
     8    22    23    1
     9    23    24    1
    10    25    24    1
    11    25    26    1
    12    26    27    1
    13    27    29    1
    14    29    30   ar
    15    30    31   ar
    16    31    32   ar
    17    32    35    1
    18    35    36    1
    19    35    37    1
    20    35    38    1
    21    32    33   ar
    22    33    34   ar
    23    25    28    1
    24     5     6   ar
    25     6     7   ar
    26     7     8   ar
    27     8     9    1
    28     9    10    1
    29    10    11    1
    30    11    12    1
    31    12    13   am
    32    13    14   am
    33    13    15    2
    34    12    16    1
    35    16    17    1
    36     8     4   ar
    37    17     9    1
    38    28    22    1
    39    27    25    1
    40    34    29   ar
    41    14    18    1
    42    14    19    1
@<TRIPOS>MOLECULE
*****
 38 42 0 0 0
SMALL
GASTEIGER

@<TRIPOS>ATOM
      1 C         143.9233  142.3704  159.9566 C.3     1  UNL1        0.0666
      2 S         144.8324  142.5300  161.1390 S.3     1  UNL1       -0.0756
      3 C         144.7328  140.3293  163.5466 C.3     1  UNL1        0.1337
      4 N         144.2081  141.7329  163.6129 N.ar    1  UNL1       -0.2918
      5 C         144.2538  142.7445  162.5062 C.ar    1  UNL1        0.1930
      6 N         143.6195  144.0082  163.0068 N.ar    1  UNL1       -0.1224
      7 N         143.1817  143.7777  164.4229 N.ar    1  UNL1       -0.1328
      8 C         143.5454  142.3715  164.7975 C.ar    1  UNL1        0.1433
      9 C         143.2912  141.7185  166.1238 C.3     1  UNL1        0.0622
     10 C         143.2458  142.5489  167.3721 C.3     1  UNL1        0.0291
     11 C         142.9916  141.8959  168.6984 C.3     1  UNL1        0.0954
     12 N         142.7827  140.4125  168.7762 N.am    1  UNL1       -0.2644
     13 C         142.5284  139.7595  170.1025 C.2     1  UNL1        0.3008
     14 N         142.4831  140.5899  171.3509 N.am    1  UNL1       -0.3132
     15 O         142.3195  138.2762  170.1804 O.2     1  UNL1       -0.2528
     16 C         142.8280  139.5822  167.5278 C.3     1  UNL1        0.0954
     17 C         143.0823  140.2352  166.2016 C.3     1  UNL1        0.0291
     18 H         142.6202  141.5635  171.2997 H       1  UNL1        0.1465
     19 H         142.3162  140.1613  172.2213 H       1  UNL1        0.1465
     20 C         142.4735  142.0457  160.1637 C.3     1  UNL1        0.0294
     21 C         141.4320  143.1077  159.9703 C.3     1  UNL1        0.0730
     22 N         140.8812  143.8427  161.1562 N.3     1  UNL1       -0.2726
     23 C         140.8577  145.3315  161.3377 C.3     1  UNL1        0.0721
     24 C         140.2191  145.6269  162.6625 C.3     1  UNL1        0.0190
     25 C         139.8480  144.3206  163.2998 C.3     1  UNL1        0.0201
     26 C         139.2615  144.9151  164.5458 C.3     1  UNL1        0.0061
     27 C         139.2850  143.4263  164.3643 C.3     1  UNL1        0.0237
     28 C         140.2572  143.2180  162.3688 C.3     1  UNL1        0.0724
     29 C         138.9735  142.0504  164.8740 C.ar    1  UNL1       -0.0225
     30 C         139.5696  141.5766  166.1664 C.ar    1  UNL1       -0.0043
     31 C         139.2581  140.2007  166.6762 C.ar    1  UNL1        0.0035
     32 C         138.3505  139.2986  165.8936 C.ar    1  UNL1        0.0714
     33 C         137.7545  139.7724  164.6012 C.ar    1  UNL1        0.0035
     34 C         138.0659  141.1483  164.0914 C.ar    1  UNL1       -0.0043
     35 C         138.0390  137.9227  166.4033 C.3     1  UNL1        0.4186
     36 F         137.7275  136.5468  166.9131 F       1  UNL1       -0.1659
     37 F         138.8725  137.3279  165.3072 F       1  UNL1       -0.1659
     38 F         137.2056  138.5175  167.4995 F       1  UNL1       -0.1659
@<TRIPOS>BOND
     1     3     4    1
     2     4     5   ar
     3     5     2    1
     4     2     1    1
     5     1    20    1
     6    20    21    1
     7    21    22    1
     8    22    23    1
     9    23    24    1
    10    25    24    1
    11    25    26    1
    12    26    27    1
    13    27    29    1
    14    29    30   ar
    15    30    31   ar
    16    31    32   ar
    17    32    35    1
    18    35    36    1
    19    35    37    1
    20    35    38    1
    21    32    33   ar
    22    33    34   ar
    23    25    28    1
    24     5     6   ar
    25     6     7   ar
    26     7     8   ar
    27     8     9    1
    28     9    10    1
    29    10    11    1
    30    11    12    1
    31    12    13   am
    32    13    14   am
    33    13    15    2
    34    12    16    1
    35    16    17    1
    36     8     4   ar
    37    17     9    1
    38    28    22    1
    39    27    25    1
    40    34    29   ar
    41    14    18    1
    42    14    19    1
@<TRIPOS>MOLECULE
*****
 38 42 0 0 0
SMALL
GASTEIGER

@<TRIPOS>ATOM
      1 C         144.4907  142.0527  161.3714 C.3     1  UNL1        0.0666
      2 S         144.7479  140.9853  162.3934 S.3     1  UNL1       -0.0756
      3 C         144.3636  142.4226  165.2979 C.3     1  UNL1        0.1337
      4 N         143.5201  141.3123  164.7451 N.ar    1  UNL1       -0.2918
      5 C         143.6967  140.6517  163.4101 C.ar    1  UNL1        0.1930
      6 N         142.6376  139.5987  163.2702 N.ar    1  UNL1       -0.1224
      7 N         141.8064  139.6086  164.5188 N.ar    1  UNL1       -0.1328
      8 C         142.3517  140.6676  165.4304 C.ar    1  UNL1        0.1433
      9 C         141.8219  141.0201  166.7887 C.3     1  UNL1        0.0622
     10 C         141.0223  142.2748  166.9794 C.3     1  UNL1        0.0291
     11 C         140.4924  142.6273  168.3378 C.3     1  UNL1        0.0954
     12 N         140.7622  141.7250  169.5053 N.am    1  UNL1       -0.2644
     13 C         140.2323  142.0775  170.8636 C.2     1  UNL1        0.3008
     14 N         139.4328  143.3322  171.0544 N.am    1  UNL1       -0.3132
     15 O         140.5021  141.1753  172.0312 O.2     1  UNL1       -0.2528
     16 C         141.5618  140.4703  169.3146 C.3     1  UNL1        0.0954
     17 C         142.0916  140.1179  167.9562 C.3     1  UNL1        0.0291
     18 H         139.2557  143.9244  170.2880 H       1  UNL1        0.1465
     19 H         139.0850  143.5636  171.9459 H       1  UNL1        0.1465
     20 C         144.5353  143.4984  161.7692 C.3     1  UNL1        0.0294
     21 C         143.3077  144.1638  162.3170 C.3     1  UNL1        0.0730
     22 N         141.9815  143.9597  161.6467 N.3     1  UNL1       -0.2726
     23 C         141.4766  144.7038  160.4461 C.3     1  UNL1        0.0721
     24 C         140.1103  144.1795  160.1167 C.3     1  UNL1        0.0190
     25 C         139.7708  143.1114  161.1136 C.3     1  UNL1        0.0201
     26 C         138.4164  142.7967  160.5512 C.3     1  UNL1        0.0061
     27 C         138.9213  142.0525  161.7517 C.3     1  UNL1        0.0237
     28 C         140.9273  142.9755  162.0592 C.3     1  UNL1        0.0724
     29 C         138.7223  141.0116  162.8133 C.ar    1  UNL1       -0.0225
     30 C         138.8638  139.5574  162.4736 C.ar    1  UNL1       -0.0043
     31 C         138.6648  138.5165  163.5352 C.ar    1  UNL1        0.0035
     32 C         138.3244  138.9298  164.9363 C.ar    1  UNL1        0.0714
     33 C         138.1830  140.3840  165.2760 C.ar    1  UNL1        0.0035
     34 C         138.3819  141.4249  164.2144 C.ar    1  UNL1       -0.0043
     35 C         138.1254  137.8889  165.9979 C.3     1  UNL1        0.4186
     36 F         137.9265  136.8480  167.0595 F       1  UNL1       -0.1659
     37 F         138.8876  136.8980  165.1690 F       1  UNL1       -0.1659
     38 F         137.3633  138.8799  166.8267 F       1  UNL1       -0.1659
@<TRIPOS>BOND
     1     3     4    1
     2     4     5   ar
     3     5     2    1
     4     2     1    1
     5     1    20    1
     6    20    21    1
     7    21    22    1
     8    22    23    1
     9    23    24    1
    10    25    24    1
    11    25    26    1
    12    26    27    1
    13    27    29    1
    14    29    30   ar
    15    30    31   ar
    16    31    32   ar
    17    32    35    1
    18    35    36    1
    19    35    37    1
    20    35    38    1
    21    32    33   ar
    22    33    34   ar
    23    25    28    1
    24     5     6   ar
    25     6     7   ar
    26     7     8   ar
    27     8     9    1
    28     9    10    1
    29    10    11    1
    30    11    12    1
    31    12    13   am
    32    13    14   am
    33    13    15    2
    34    12    16    1
    35    16    17    1
    36     8     4   ar
    37    17     9    1
    38    28    22    1
    39    27    25    1
    40    34    29   ar
    41    14    18    1
    42    14    19    1
@<TRIPOS>MOLECULE
*****
 38 42 0 0 0
SMALL
GASTEIGER

@<TRIPOS>ATOM
      1 C         142.7045  143.2381  160.6868 C.3     1  UNL1        0.0666
      2 S         142.5663  144.1134  161.8970 S.3     1  UNL1       -0.0756
      3 C         143.7581  143.4896  164.8702 C.3     1  UNL1        0.1337
      4 N         142.3257  143.3504  164.4475 N.ar    1  UNL1       -0.2918
      5 C         141.7778  143.6372  163.0809 C.ar    1  UNL1        0.1930
      6 N         140.3031  143.3641  163.1059 N.ar    1  UNL1       -0.1224
      7 N         139.9395  142.9085  164.4881 N.ar    1  UNL1       -0.1328
      8 C         141.1895  142.9001  165.3173 C.ar    1  UNL1        0.1433
      9 C         141.2863  142.5098  166.7624 C.3     1  UNL1        0.0622
     10 C         142.3048  141.4991  167.1997 C.3     1  UNL1        0.0291
     11 C         142.4016  141.1089  168.6448 C.3     1  UNL1        0.0954
     12 N         141.4799  141.7294  169.6526 N.am    1  UNL1       -0.2644
     13 C         141.5767  141.3392  171.0977 C.2     1  UNL1        0.3008
     14 N         142.5952  140.3285  171.5350 N.am    1  UNL1       -0.3132
     15 O         140.6551  141.9596  172.1055 O.2     1  UNL1       -0.2528
     16 C         140.4614  142.7401  169.2152 C.3     1  UNL1        0.0954
     17 C         140.3647  143.1303  167.7701 C.3     1  UNL1        0.0291
     18 H         143.2001  139.9213  170.8735 H       1  UNL1        0.1465
     19 H         142.6587  140.0724  172.4835 H       1  UNL1        0.1465
     20 C         143.9322  142.3950  160.5073 C.3     1  UNL1        0.0294
     21 C         143.8607  140.9116  160.7176 C.3     1  UNL1        0.0730
     22 N         142.6483  140.1485  160.2726 N.3     1  UNL1       -0.2726
     23 C         142.3508  139.7055  158.8708 C.3     1  UNL1        0.0721
     24 C         141.0393  138.9777  158.8832 C.3     1  UNL1        0.0190
     25 C         140.5262  138.9709  160.2927 C.3     1  UNL1        0.0201
     26 C         139.2669  138.2114  159.9975 C.3     1  UNL1        0.0061
     27 C         139.5644  138.6544  161.3994 C.3     1  UNL1        0.0237
     28 C         141.5207  139.6945  161.1514 C.3     1  UNL1        0.0724
     29 C         139.1809  138.7274  162.8477 C.ar    1  UNL1       -0.0225
     30 C         138.4307  139.9186  163.3658 C.ar    1  UNL1       -0.0043
     31 C         138.0472  139.9916  164.8141 C.ar    1  UNL1        0.0035
     32 C         138.4139  138.8734  165.7443 C.ar    1  UNL1        0.0714
     33 C         139.1641  137.6823  165.2262 C.ar    1  UNL1        0.0035
     34 C         139.5476  137.6092  163.7779 C.ar    1  UNL1       -0.0043
     35 C         138.0304  138.9464  167.1925 C.3     1  UNL1        0.4186
     36 F         137.6468  139.0194  168.6409 F       1  UNL1       -0.1659
     37 F         138.9874  140.0847  167.3886 F       1  UNL1       -0.1659
     38 F         137.0734  137.8082  166.9965 F       1  UNL1       -0.1659
@<TRIPOS>BOND
     1     3     4    1
     2     4     5   ar
     3     5     2    1
     4     2     1    1
     5     1    20    1
     6    20    21    1
     7    21    22    1
     8    22    23    1
     9    23    24    1
    10    25    24    1
    11    25    26    1
    12    26    27    1
    13    27    29    1
    14    29    30   ar
    15    30    31   ar
    16    31    32   ar
    17    32    35    1
    18    35    36    1
    19    35    37    1
    20    35    38    1
    21    32    33   ar
    22    33    34   ar
    23    25    28    1
    24     5     6   ar
    25     6     7   ar
    26     7     8   ar
    27     8     9    1
    28     9    10    1
    29    10    11    1
    30    11    12    1
    31    12    13   am
    32    13    14   am
    33    13    15    2
    34    12    16    1
    35    16    17    1
    36     8     4   ar
    37    17     9    1
    38    28    22    1
    39    27    25    1
    40    34    29   ar
    41    14    18    1
    42    14    19    1
@<TRIPOS>MOLECULE
*****
 38 42 0 0 0
SMALL
GASTEIGER

@<TRIPOS>ATOM
      1 C         138.9340  138.6370  161.7367 C.3     1  UNL1        0.0666
      2 S         139.2083  137.6355  162.8192 S.3     1  UNL1       -0.0756
      3 C         138.4987  139.6250  165.3067 C.3     1  UNL1        0.1337
      4 N         139.7972  138.9039  165.0972 N.ar    1  UNL1       -0.2918
      5 C         140.1234  137.9895  163.9538 C.ar    1  UNL1        0.1930
      6 N         141.5253  137.4910  164.1442 N.ar    1  UNL1       -0.1224
      7 N         142.0655  138.0974  165.4053 N.ar    1  UNL1       -0.1328
      8 C         140.9975  138.9707  165.9944 C.ar    1  UNL1        0.1433
      9 C         141.1101  139.7702  167.2585 C.3     1  UNL1        0.0622
     10 C         142.4153  140.4113  167.6267 C.3     1  UNL1        0.0291
     11 C         142.5278  141.2109  168.8909 C.3     1  UNL1        0.0954
     12 N         141.3352  141.3693  169.7868 N.am    1  UNL1       -0.2644
     13 C         141.4477  142.1688  171.0509 C.2     1  UNL1        0.3008
     14 N         142.7529  142.8099  171.4191 N.am    1  UNL1       -0.3132
     15 O         140.2552  142.3273  171.9468 O.2     1  UNL1       -0.2528
     16 C         140.0300  140.7282  169.4185 C.3     1  UNL1        0.0954
     17 C         139.9175  139.9286  168.1543 C.3     1  UNL1        0.0291
     18 H         143.5356  142.7059  170.8311 H       1  UNL1        0.1465
     19 H         142.8268  143.3347  172.2488 H       1  UNL1        0.1465
     20 C         139.7797  138.6530  160.4979 C.3     1  UNL1        0.0294
     21 C         141.2178  138.2319  160.5659 C.3     1  UNL1        0.0730
     22 N         142.2589  139.1949  161.0544 N.3     1  UNL1       -0.2726
     23 C         143.7297  139.1231  160.7686 C.3     1  UNL1        0.0721
     24 C         144.3918  140.2826  161.4521 C.3     1  UNL1        0.0190
     25 C         143.3303  141.0710  162.1603 C.3     1  UNL1        0.0201
     26 C         144.2547  142.1112  162.7201 C.3     1  UNL1        0.0061
     27 C         142.7840  142.1830  163.0060 C.3     1  UNL1        0.0237
     28 C         142.0121  140.3988  161.9145 C.3     1  UNL1        0.0724
     29 C         141.6195  142.8664  163.6592 C.ar    1  UNL1       -0.0225
     30 C         141.3569  142.6665  165.1225 C.ar    1  UNL1       -0.0043
     31 C         140.1923  143.3499  165.7758 C.ar    1  UNL1        0.0035
     32 C         139.2904  144.2332  164.9658 C.ar    1  UNL1        0.0714
     33 C         139.5530  144.4332  163.5025 C.ar    1  UNL1        0.0035
     34 C         140.7175  143.7498  162.8492 C.ar    1  UNL1       -0.0043
     35 C         138.1258  144.9167  165.6190 C.3     1  UNL1        0.4186
     36 F         136.9613  145.6001  166.2723 F       1  UNL1       -0.1659
     37 F         137.2891  144.6540  164.4021 F       1  UNL1       -0.1659
     38 F         138.9626  145.1793  166.8359 F       1  UNL1       -0.1659
@<TRIPOS>BOND
     1     3     4    1
     2     4     5   ar
     3     5     2    1
     4     2     1    1
     5     1    20    1
     6    20    21    1
     7    21    22    1
     8    22    23    1
     9    23    24    1
    10    25    24    1
    11    25    26    1
    12    26    27    1
    13    27    29    1
    14    29    30   ar
    15    30    31   ar
    16    31    32   ar
    17    32    35    1
    18    35    36    1
    19    35    37    1
    20    35    38    1
    21    32    33   ar
    22    33    34   ar
    23    25    28    1
    24     5     6   ar
    25     6     7   ar
    26     7     8   ar
    27     8     9    1
    28     9    10    1
    29    10    11    1
    30    11    12    1
    31    12    13   am
    32    13    14   am
    33    13    15    2
    34    12    16    1
    35    16    17    1
    36     8     4   ar
    37    17     9    1
    38    28    22    1
    39    27    25    1
    40    34    29   ar
    41    14    18    1
    42    14    19    1
@<TRIPOS>MOLECULE
*****
 38 42 0 0 0
SMALL
GASTEIGER

@<TRIPOS>ATOM
      1 C         140.5491  143.6107  159.9798 C.3     1  UNL1        0.0666
      2 S         139.9647  144.1944  161.2319 S.3     1  UNL1       -0.0756
      3 C         139.4636  141.7582  163.3445 C.3     1  UNL1        0.1337
      4 N         140.4356  142.8878  163.5157 N.ar    1  UNL1       -0.2918
      5 C         140.6660  144.0076  162.5446 C.ar    1  UNL1        0.1930
      6 N         141.7207  144.9077  163.1167 N.ar    1  UNL1       -0.1224
      7 N         142.1422  144.3443  164.4414 N.ar    1  UNL1       -0.1328
      8 C         141.3480  143.0958  164.6881 C.ar    1  UNL1        0.1433
      9 C         141.4486  142.2109  165.8951 C.3     1  UNL1        0.0622
     10 C         140.3246  142.1653  166.8873 C.3     1  UNL1        0.0291
     11 C         140.4251  141.2804  168.0943 C.3     1  UNL1        0.0954
     12 N         141.6497  140.4411  168.3089 N.am    1  UNL1       -0.2644
     13 C         141.7503  139.5561  169.5159 C.2     1  UNL1        0.3008
     14 N         140.6263  139.5106  170.5082 N.am    1  UNL1       -0.3132
     15 O         142.9747  138.7168  169.7306 O.2     1  UNL1       -0.2528
     16 C         142.7737  140.4866  167.3167 C.3     1  UNL1        0.0954
     17 C         142.6731  141.3716  166.1097 C.3     1  UNL1        0.0291
     18 H         139.8226  140.0615  170.3673 H       1  UNL1        0.1465
     19 H         140.6923  138.9298  171.3004 H       1  UNL1        0.1465
     20 C         141.9944  143.8387  159.6495 C.3     1  UNL1        0.0294
     21 C         143.0576  143.0408  160.3446 C.3     1  UNL1        0.0730
     22 N         143.1251  141.5545  160.1536 N.3     1  UNL1       -0.2726
     23 C         143.9275  140.8353  159.1102 C.3     1  UNL1        0.0721
     24 C         143.7005  139.3628  159.2843 C.3     1  UNL1        0.0190
     25 C         142.7577  139.1720  160.4353 C.3     1  UNL1        0.0201
     26 C         142.7264  137.6740  160.3657 C.3     1  UNL1        0.0061
     27 C         141.9240  138.3933  161.4092 C.3     1  UNL1        0.0237
     28 C         142.4022  140.5266  160.9726 C.3     1  UNL1        0.0724
     29 C         140.9794  138.3589  162.5739 C.ar    1  UNL1       -0.0225
     30 C         139.5165  138.1180  162.3462 C.ar    1  UNL1       -0.0043
     31 C         138.5719  138.0836  163.5109 C.ar    1  UNL1        0.0035
     32 C         139.0902  138.2903  164.9033 C.ar    1  UNL1        0.0714
     33 C         140.5532  138.5312  165.1309 C.ar    1  UNL1        0.0035
     34 C         141.4978  138.5655  163.9662 C.ar    1  UNL1       -0.0043
     35 C         138.1456  138.2559  166.0680 C.3     1  UNL1        0.4186
     36 F         137.2010  138.2216  167.2327 F       1  UNL1       -0.1659
     37 F         138.2098  136.7573  166.0758 F       1  UNL1       -0.1659
     38 F         138.0815  139.7545  166.0601 F       1  UNL1       -0.1659
@<TRIPOS>BOND
     1     3     4    1
     2     4     5   ar
     3     5     2    1
     4     2     1    1
     5     1    20    1
     6    20    21    1
     7    21    22    1
     8    22    23    1
     9    23    24    1
    10    25    24    1
    11    25    26    1
    12    26    27    1
    13    27    29    1
    14    29    30   ar
    15    30    31   ar
    16    31    32   ar
    17    32    35    1
    18    35    36    1
    19    35    37    1
    20    35    38    1
    21    32    33   ar
    22    33    34   ar
    23    25    28    1
    24     5     6   ar
    25     6     7   ar
    26     7     8   ar
    27     8     9    1
    28     9    10    1
    29    10    11    1
    30    11    12    1
    31    12    13   am
    32    13    14   am
    33    13    15    2
    34    12    16    1
    35    16    17    1
    36     8     4   ar
    37    17     9    1
    38    28    22    1
    39    27    25    1
    40    34    29   ar
    41    14    18    1
    42    14    19    1
@<TRIPOS>MOLECULE
*****
 38 42 0 0 0
SMALL
GASTEIGER

@<TRIPOS>ATOM
      1 C         138.3833  139.5007  160.7220 C.3     1  UNL1        0.0666
      2 S         137.8456  138.7373  161.8960 S.3     1  UNL1       -0.0756
      3 C         137.6972  141.2194  164.0094 C.3     1  UNL1        0.1337
      4 N         138.4761  139.9507  164.1927 N.ar    1  UNL1       -0.2918
      5 C         138.5443  138.8098  163.2213 C.ar    1  UNL1        0.1930
      6 N         139.4339  137.7541  163.8079 N.ar    1  UNL1       -0.1224
      7 N         139.9155  138.2425  165.1419 N.ar    1  UNL1       -0.1328
      8 C         139.3236  139.6001  165.3798 C.ar    1  UNL1        0.1433
      9 C         139.5409  140.4567  166.5918 C.3     1  UNL1        0.0622
     10 C         139.3310  139.8841  167.9623 C.3     1  UNL1        0.0291
     11 C         139.5484  140.7407  169.1743 C.3     1  UNL1        0.0954
     12 N         139.9756  142.1699  169.0158 N.am    1  UNL1       -0.2644
     13 C         140.1930  143.0264  170.2279 C.2     1  UNL1        0.3008
     14 N         139.9831  142.4539  171.5983 N.am    1  UNL1       -0.3132
     15 O         140.6202  144.4555  170.0695 O.2     1  UNL1       -0.2528
     16 C         140.1855  142.7424  167.6454 C.3     1  UNL1        0.0954
     17 C         139.9681  141.8858  166.4334 C.3     1  UNL1        0.0291
     18 H         139.7027  141.5159  171.7023 H       1  UNL1        0.1465
     19 H         140.1257  143.0161  172.3938 H       1  UNL1        0.1465
     20 C         139.4604  138.9013  159.8672 C.3     1  UNL1        0.0294
     21 C         140.7134  138.3729  160.5003 C.3     1  UNL1        0.0730
     22 N         141.8976  139.2746  160.6861 N.3     1  UNL1       -0.2726
     23 C         142.7274  139.8770  159.5914 C.3     1  UNL1        0.0721
     24 C         143.8026  140.7069  160.2281 C.3     1  UNL1        0.0190
     25 C         143.6372  140.6173  161.7163 C.3     1  UNL1        0.0201
     26 C         144.7976  141.5047  162.0567 C.3     1  UNL1        0.0061
     27 C         143.9678  140.9023  163.1514 C.3     1  UNL1        0.0237
     28 C         142.4599  139.7321  161.9994 C.3     1  UNL1        0.0724
     29 C         143.6796  140.7189  164.6120 C.ar    1  UNL1       -0.0225
     30 C         143.4480  139.3435  165.1639 C.ar    1  UNL1       -0.0043
     31 C         143.1597  139.1601  166.6244 C.ar    1  UNL1        0.0035
     32 C         143.1031  140.3522  167.5331 C.ar    1  UNL1        0.0714
     33 C         143.3347  141.7277  166.9812 C.ar    1  UNL1        0.0035
     34 C         143.6229  141.9110  165.5206 C.ar    1  UNL1       -0.0043
     35 C         142.8148  140.1689  168.9937 C.3     1  UNL1        0.4186
     36 F         142.5266  139.9856  170.4543 F       1  UNL1       -0.1659
     37 F         142.4525  138.7352  168.7422 F       1  UNL1       -0.1659
     38 F         143.1772  141.6026  169.2451 F       1  UNL1       -0.1659
@<TRIPOS>BOND
     1     3     4    1
     2     4     5   ar
     3     5     2    1
     4     2     1    1
     5     1    20    1
     6    20    21    1
     7    21    22    1
     8    22    23    1
     9    23    24    1
    10    25    24    1
    11    25    26    1
    12    26    27    1
    13    27    29    1
    14    29    30   ar
    15    30    31   ar
    16    31    32   ar
    17    32    35    1
    18    35    36    1
    19    35    37    1
    20    35    38    1
    21    32    33   ar
    22    33    34   ar
    23    25    28    1
    24     5     6   ar
    25     6     7   ar
    26     7     8   ar
    27     8     9    1
    28     9    10    1
    29    10    11    1
    30    11    12    1
    31    12    13   am
    32    13    14   am
    33    13    15    2
    34    12    16    1
    35    16    17    1
    36     8     4   ar
    37    17     9    1
    38    28    22    1
    39    27    25    1
    40    34    29   ar
    41    14    18    1
    42    14    19    1
@<TRIPOS>MOLECULE
*****
 38 42 0 0 0
SMALL
GASTEIGER

@<TRIPOS>ATOM
      1 C         139.2714  142.6395  160.0863 C.3     1  UNL1        0.0666
      2 S         138.8796  143.0443  161.4765 S.3     1  UNL1       -0.0756
      3 C         137.8211  142.7305  164.5474 C.3     1  UNL1        0.1337
      4 N         139.2107  142.4447  164.0603 N.ar    1  UNL1       -0.2918
      5 C         139.6973  142.5889  162.6487 C.ar    1  UNL1        0.1930
      6 N         141.1450  142.1977  162.6151 N.ar    1  UNL1       -0.1224
      7 N         141.5532  141.8117  164.0059 N.ar    1  UNL1       -0.1328
      8 C         140.3578  141.9643  164.8991 C.ar    1  UNL1        0.1433
      9 C         140.3166  141.6855  166.3724 C.3     1  UNL1        0.0622
     10 C         139.8494  140.3499  166.8703 C.3     1  UNL1        0.0291
     11 C         139.8082  140.0712  168.3436 C.3     1  UNL1        0.0954
     12 N         140.2344  141.1281  169.3190 N.am    1  UNL1       -0.2644
     13 C         140.1933  140.8493  170.7923 C.2     1  UNL1        0.3008
     14 N         139.7260  139.5137  171.2901 N.am    1  UNL1       -0.3132
     15 O         140.6194  141.9061  171.7678 O.2     1  UNL1       -0.2528
     16 C         140.7017  142.4637  168.8212 C.3     1  UNL1        0.0954
     17 C         140.7428  142.7424  167.3478 C.3     1  UNL1        0.0291
     18 H         139.4463  138.8201  170.6499 H       1  UNL1        0.1465
     19 H         139.6990  139.3308  172.2571 H       1  UNL1        0.1465
     20 C         138.3020  141.8882  159.2227 C.3     1  UNL1        0.0294
     21 C         138.2542  140.3900  159.2769 C.3     1  UNL1        0.0730
     22 N         139.4995  139.5905  159.0323 N.3     1  UNL1       -0.2726
     23 C         139.9594  139.0580  157.7075 C.3     1  UNL1        0.0721
     24 C         141.2477  138.3215  157.9260 C.3     1  UNL1        0.0190
     25 C         141.5841  138.3988  159.3857 C.3     1  UNL1        0.0201
     26 C         142.8578  137.6117  159.2951 C.3     1  UNL1        0.0061
     27 C         142.3980  138.1442  160.6198 C.3     1  UNL1        0.0237
     28 C         140.5037  139.1831  160.0695 C.3     1  UNL1        0.0724
     29 C         142.6023  138.3047  162.0971 C.ar    1  UNL1       -0.0225
     30 C         143.7917  139.0598  162.6121 C.ar    1  UNL1       -0.0043
     31 C         143.9961  139.2203  164.0894 C.ar    1  UNL1        0.0035
     32 C         143.0110  138.6257  165.0517 C.ar    1  UNL1        0.0714
     33 C         141.8216  137.8706  164.5368 C.ar    1  UNL1        0.0035
     34 C         141.6173  137.7101  163.0594 C.ar    1  UNL1       -0.0043
     35 C         143.2154  138.7861  166.5290 C.3     1  UNL1        0.4186
     36 F         143.4198  138.9466  168.0064 F       1  UNL1       -0.1659
     37 F         143.0128  140.2664  166.3962 F       1  UNL1       -0.1659
     38 F         143.4180  137.3059  166.6618 F       1  UNL1       -0.1659
@<TRIPOS>BOND
     1     3     4    1
     2     4     5   ar
     3     5     2    1
     4     2     1    1
     5     1    20    1
     6    20    21    1
     7    21    22    1
     8    22    23    1
     9    23    24    1
    10    25    24    1
    11    25    26    1
    12    26    27    1
    13    27    29    1
    14    29    30   ar
    15    30    31   ar
    16    31    32   ar
    17    32    35    1
    18    35    36    1
    19    35    37    1
    20    35    38    1
    21    32    33   ar
    22    33    34   ar
    23    25    28    1
    24     5     6   ar
    25     6     7   ar
    26     7     8   ar
    27     8     9    1
    28     9    10    1
    29    10    11    1
    30    11    12    1
    31    12    13   am
    32    13    14   am
    33    13    15    2
    34    12    16    1
    35    16    17    1
    36     8     4   ar
    37    17     9    1
    38    28    22    1
    39    27    25    1
    40    34    29   ar
    41    14    18    1
    42    14    19    1
