@<TRIPOS>MOLECULE
*****
 37 41 0 0 0
SMALL
GASTEIGER

@<TRIPOS>ATOM
      1 C         142.3668  139.2250  168.8823 C.3     1  UNL1        0.2588
      2 O         143.5872  139.5600  171.1514 O.2     1  UNL1       -0.2708
      3 C         143.1926  138.6742  170.0070 C.2     1  UNL1        0.2689
      4 N         143.6237  137.2376  169.9873 N.am    1  UNL1       -0.2664
      5 H         143.3647  136.6562  169.2362 H       1  UNL1        0.1564
      6 C         144.4493  136.6868  171.1119 C.ar    1  UNL1        0.1344
      7 C         144.3250  135.2421  171.4960 C.ar    1  UNL1        0.0368
      8 C         145.1507  134.6913  172.6206 C.ar    1  UNL1        0.0341
      9 C         146.1008  135.5852  173.3612 C.ar    1  UNL1        0.1593
     10 F         146.9264  135.0344  174.4858 F       1  UNL1       -0.2025
     11 C         146.2251  137.0299  172.9772 C.ar    1  UNL1        0.1298
     12 N         145.3993  137.5807  171.8525 N.ar    1  UNL1       -0.2267
     13 C         141.0157  139.8132  169.1621 C.3     1  UNL1        0.1261
     14 N         140.8861  141.2705  169.4929 N.3     1  UNL1       -0.2650
     15 C         140.3826  142.4825  168.7664 C.3     1  UNL1        0.1033
     16 C         140.7027  143.3314  169.9608 C.3     1  UNL1        0.1423
     17 O         140.5731  144.7888  170.2917 O.3     1  UNL1       -0.3816
     18 C         141.2061  142.1196  170.6873 C.3     1  UNL1        0.1033
     19 H         140.1901  145.2593  169.5348 H       1  UNL1        0.2105
     20 O         142.8923  139.1874  167.4779 O.3     1  UNL1       -0.4529
     21 C         142.0493  139.6994  166.3477 C.ar    1  UNL1        0.2312
     22 N         140.9645  138.8385  165.7714 N.ar    1  UNL1       -0.1892
     23 C         140.1215  139.3504  164.6413 C.ar    1  UNL1        0.2029
     24 N         140.3632  140.7233  164.0875 N.ar    1  UNL1       -0.2046
     25 C         141.4480  141.5843  164.6638 C.ar    1  UNL1        0.1715
     26 C         142.2910  141.0723  165.7939 C.ar    1  UNL1        0.1098
     27 C         143.2799  142.1407  166.1555 C.ar    1  UNL1        0.1283
     28 N         143.0480  143.3129  165.2489 N.ar    1  UNL1       -0.1619
     29 N         141.9158  142.9690  164.3269 N.ar    1  UNL1       -0.2103
     30 C         141.3507  143.8545  163.2561 C.ar    1  UNL1        0.1054
     31 C         141.9940  143.8979  161.9018 C.ar    1  UNL1        0.0762
     32 CL        143.2026  143.0558  161.6182 Cl      1  UNL1       -0.0806
     33 C         141.4289  144.7833  160.8310 C.ar    1  UNL1        0.0130
     34 C         140.2204  145.6254  161.1145 C.ar    1  UNL1        0.0018
     35 C         139.5771  145.5820  162.4688 C.ar    1  UNL1        0.0130
     36 C         140.1422  144.6966  163.5396 C.ar    1  UNL1        0.0762
     37 CL        139.4988  144.6532  164.8939 Cl      1  UNL1       -0.0806
@<TRIPOS>BOND
     1     2     3    2
     2     3     4   am
     3     4     6    1
     4     6     7   ar
     5     7     8   ar
     6     8     9   ar
     7     9    10    1
     8     9    11   ar
     9    11    12   ar
    10     3     1    1
    11     1    13    1
    12    13    14    1
    13    14    15    1
    14    15    16    1
    15    16    17    1
    16    16    18    1
    17     1    20    1
    18    20    21    1
    19    21    22   ar
    20    22    23   ar
    21    23    24   ar
    22    24    25   ar
    23    25    26   ar
    24    26    27   ar
    25    27    28   ar
    26    28    29   ar
    27    29    30    1
    28    30    31   ar
    29    31    32    1
    30    31    33   ar
    31    33    34   ar
    32    34    35   ar
    33    35    36   ar
    34    36    37    1
    35    12     6   ar
    36    18    14    1
    37    26    21   ar
    38    36    30   ar
    39    29    25   ar
    40     4     5    1
    41    17    19    1
@<TRIPOS>MOLECULE
*****
 37 41 0 0 0
SMALL
GASTEIGER

@<TRIPOS>ATOM
      1 C         137.7610  141.1345  161.6500 C.3     1  UNL1        0.2588
      2 O         138.0874  141.9032  159.1898 O.2     1  UNL1       -0.2708
      3 C         138.5100  141.9381  160.6286 C.2     1  UNL1        0.2689
      4 N         139.6816  142.7766  161.0460 N.am    1  UNL1       -0.2664
      5 H         139.9590  142.7995  161.9904 H       1  UNL1        0.1564
      6 C         140.4306  143.5801  160.0247 C.ar    1  UNL1        0.1344
      7 C         140.0441  145.0053  159.7610 C.ar    1  UNL1        0.0368
      8 C         140.7932  145.8089  158.7397 C.ar    1  UNL1        0.0341
      9 C         141.9287  145.1873  157.9819 C.ar    1  UNL1        0.1593
     10 F         142.6778  145.9909  156.9605 F       1  UNL1       -0.2025
     11 C         142.3152  143.7621  158.2455 C.ar    1  UNL1        0.1298
     12 N         141.5661  142.9585  159.2669 N.ar    1  UNL1       -0.2267
     13 C         137.6413  139.6475  161.4938 C.3     1  UNL1        0.1261
     14 N         138.7338  138.7503  161.9953 N.3     1  UNL1       -0.2650
     15 C         140.2058  138.6242  161.7354 C.3     1  UNL1        0.1033
     16 C         140.2789  137.4815  162.7044 C.3     1  UNL1        0.1423
     17 O         141.3714  136.5843  163.2059 O.3     1  UNL1       -0.3816
     18 C         138.8070  137.6076  162.9642 C.3     1  UNL1        0.1033
     19 H         142.2099  136.8292  162.7842 H       1  UNL1        0.2105
     20 O         137.1317  141.8180  162.8276 O.3     1  UNL1       -0.4529
     21 C         137.9924  142.5227  163.8339 C.ar    1  UNL1        0.2312
     22 N         138.1340  144.0152  163.7857 N.ar    1  UNL1       -0.1892
     23 C         138.9947  144.7198  164.7919 C.ar    1  UNL1        0.2029
     24 N         139.7139  143.9319  165.8464 N.ar    1  UNL1       -0.2046
     25 C         139.5724  142.4394  165.8947 C.ar    1  UNL1        0.1715
     26 C         138.7117  141.7348  164.8884 C.ar    1  UNL1        0.1098
     27 C         138.7629  140.2648  165.1829 C.ar    1  UNL1        0.1283
     28 N         139.6553  140.0610  166.3712 N.ar    1  UNL1       -0.1619
     29 N         140.1556  141.4050  166.8111 N.ar    1  UNL1       -0.2103
     30 C         141.0773  141.6683  167.9648 C.ar    1  UNL1        0.1054
     31 C         140.5940  141.4713  169.3711 C.ar    1  UNL1        0.0762
     32 CL        139.1888  141.0109  169.6236 Cl      1  UNL1       -0.0806
     33 C         141.5157  141.7346  170.5248 C.ar    1  UNL1        0.0130
     34 C         142.9208  142.1950  170.2723 C.ar    1  UNL1        0.0018
     35 C         143.4041  142.3920  168.8661 C.ar    1  UNL1        0.0130
     36 C         142.4824  142.1287  167.7124 C.ar    1  UNL1        0.0762
     37 CL        142.9658  142.3257  166.3061 Cl      1  UNL1       -0.0806
@<TRIPOS>BOND
     1     2     3    2
     2     3     4   am
     3     4     6    1
     4     6     7   ar
     5     7     8   ar
     6     8     9   ar
     7     9    10    1
     8     9    11   ar
     9    11    12   ar
    10     3     1    1
    11     1    13    1
    12    13    14    1
    13    14    15    1
    14    15    16    1
    15    16    17    1
    16    16    18    1
    17     1    20    1
    18    20    21    1
    19    21    22   ar
    20    22    23   ar
    21    23    24   ar
    22    24    25   ar
    23    25    26   ar
    24    26    27   ar
    25    27    28   ar
    26    28    29   ar
    27    29    30    1
    28    30    31   ar
    29    31    32    1
    30    31    33   ar
    31    33    34   ar
    32    34    35   ar
    33    35    36   ar
    34    36    37    1
    35    12     6   ar
    36    18    14    1
    37    26    21   ar
    38    36    30   ar
    39    29    25   ar
    40     4     5    1
    41    17    19    1
@<TRIPOS>MOLECULE
*****
 37 41 0 0 0
SMALL
GASTEIGER

@<TRIPOS>ATOM
      1 C         144.3480  140.6367  164.2204 C.3     1  UNL1        0.2588
      2 O         143.4740  142.0571  166.2125 O.2     1  UNL1       -0.2708
      3 C         143.6033  140.7334  165.5189 C.2     1  UNL1        0.2689
      4 N         142.9878  139.5065  166.1237 N.am    1  UNL1       -0.2664
      5 H         143.0727  138.6377  165.6684 H       1  UNL1        0.1564
      6 C         142.2431  139.6032  167.4221 C.ar    1  UNL1        0.1344
      7 C         140.8039  140.0257  167.4316 C.ar    1  UNL1        0.0368
      8 C         140.0592  140.1224  168.7301 C.ar    1  UNL1        0.0341
      9 C         140.7537  139.7966  170.0191 C.ar    1  UNL1        0.1593
     10 F         140.0090  139.8933  171.3176 F       1  UNL1       -0.2025
     11 C         142.1929  139.3740  170.0096 C.ar    1  UNL1        0.1298
     12 N         142.9376  139.2773  168.7111 N.ar    1  UNL1       -0.2267
     13 C         144.9678  141.8626  163.6181 C.3     1  UNL1        0.1261
     14 N         144.1138  142.8470  162.8753 N.3     1  UNL1       -0.2650
     15 C         144.0525  144.3432  162.7866 C.3     1  UNL1        0.1033
     16 C         142.9061  144.2392  161.8249 C.3     1  UNL1        0.1423
     17 O         142.0521  145.2236  161.0821 O.3     1  UNL1       -0.3816
     18 C         142.9674  142.7431  161.9136 C.3     1  UNL1        0.1033
     19 H         142.3358  146.1256  161.2984 H       1  UNL1        0.2105
     20 O         144.4730  139.3139  163.5242 O.3     1  UNL1       -0.4529
     21 C         143.3135  138.7618  162.7491 C.ar    1  UNL1        0.2312
     22 N         142.2000  138.0568  163.4655 N.ar    1  UNL1       -0.1892
     23 C         141.0405  137.5048  162.6904 C.ar    1  UNL1        0.2029
     24 N         140.9946  137.6576  161.1989 N.ar    1  UNL1       -0.2046
     25 C         142.1080  138.3626  160.4825 C.ar    1  UNL1        0.1715
     26 C         143.2675  138.9146  161.2576 C.ar    1  UNL1        0.1098
     27 C         144.2120  139.5563  160.2848 C.ar    1  UNL1        0.1283
     28 N         143.6362  139.4007  158.9085 N.ar    1  UNL1       -0.1619
     29 N         142.3359  138.6630  159.0307 N.ar    1  UNL1       -0.2103
     30 C         141.4236  138.2910  157.8996 C.ar    1  UNL1        0.1054
     31 C         141.7258  137.0873  157.0572 C.ar    1  UNL1        0.0762
     32 CL        142.9403  136.2555  157.3457 Cl      1  UNL1       -0.0806
     33 C         140.8135  136.7153  155.9261 C.ar    1  UNL1        0.0130
     34 C         139.5990  137.5470  155.6375 C.ar    1  UNL1        0.0018
     35 C         139.2969  138.7506  156.4799 C.ar    1  UNL1        0.0130
     36 C         140.2091  139.1227  157.6110 C.ar    1  UNL1        0.0762
     37 CL        139.9069  140.3264  158.4534 Cl      1  UNL1       -0.0806
@<TRIPOS>BOND
     1     2     3    2
     2     3     4   am
     3     4     6    1
     4     6     7   ar
     5     7     8   ar
     6     8     9   ar
     7     9    10    1
     8     9    11   ar
     9    11    12   ar
    10     3     1    1
    11     1    13    1
    12    13    14    1
    13    14    15    1
    14    15    16    1
    15    16    17    1
    16    16    18    1
    17     1    20    1
    18    20    21    1
    19    21    22   ar
    20    22    23   ar
    21    23    24   ar
    22    24    25   ar
    23    25    26   ar
    24    26    27   ar
    25    27    28   ar
    26    28    29   ar
    27    29    30    1
    28    30    31   ar
    29    31    32    1
    30    31    33   ar
    31    33    34   ar
    32    34    35   ar
    33    35    36   ar
    34    36    37    1
    35    12     6   ar
    36    18    14    1
    37    26    21   ar
    38    36    30   ar
    39    29    25   ar
    40     4     5    1
    41    17    19    1
@<TRIPOS>MOLECULE
*****
 37 41 0 0 0
SMALL
GASTEIGER

@<TRIPOS>ATOM
      1 C         139.0913  138.4695  162.5268 C.3     1  UNL1        0.2588
      2 O         139.0845  137.4261  164.9062 O.2     1  UNL1       -0.2708
      3 C         139.4407  138.5535  163.9832 C.2     1  UNL1        0.2689
      4 N         140.1462  139.7651  164.5165 N.am    1  UNL1       -0.2664
      5 H         140.3800  140.5051  163.9107 H       1  UNL1        0.1564
      6 C         140.4956  139.8491  165.9728 C.ar    1  UNL1        0.1344
      7 C         139.4301  140.1553  166.9832 C.ar    1  UNL1        0.0368
      8 C         139.7795  140.2393  168.4395 C.ar    1  UNL1        0.0341
      9 C         141.1945  140.0173  168.8854 C.ar    1  UNL1        0.1593
     10 F         141.5439  140.1013  170.3417 F       1  UNL1       -0.2025
     11 C         142.2600  139.7111  167.8749 C.ar    1  UNL1        0.1298
     12 N         141.9105  139.6271  166.4186 N.ar    1  UNL1       -0.2267
     13 C         137.9102  139.2253  161.9941 C.3     1  UNL1        0.1261
     14 N         137.8357  140.7142  162.1599 N.3     1  UNL1       -0.2650
     15 C         137.3263  141.6386  163.2259 C.3     1  UNL1        0.1033
     16 C         137.7303  142.8199  162.3945 C.3     1  UNL1        0.1423
     17 O         137.6557  144.3088  162.5603 O.3     1  UNL1       -0.3816
     18 C         138.2396  141.8956  161.3286 C.3     1  UNL1        0.1033
     19 H         137.2459  144.5189  163.4140 H       1  UNL1        0.2105
     20 O         139.9230  137.6297  161.6033 O.3     1  UNL1       -0.4529
     21 C         141.3138  138.0622  161.2443 C.ar    1  UNL1        0.2312
     22 N         142.4628  137.7148  162.1437 N.ar    1  UNL1       -0.1892
     23 C         143.8535  138.1473  161.7848 C.ar    1  UNL1        0.2029
     24 N         144.0951  138.9271  160.5264 N.ar    1  UNL1       -0.2046
     25 C         142.9461  139.2745  159.6270 C.ar    1  UNL1        0.1715
     26 C         141.5554  138.8420  159.9860 C.ar    1  UNL1        0.1098
     27 C         140.6273  139.3273  158.9121 C.ar    1  UNL1        0.1283
     28 N         141.4444  140.0597  157.8894 N.ar    1  UNL1       -0.1619
     29 N         142.8775  140.0271  158.3313 N.ar    1  UNL1       -0.2103
     30 C         144.0383  140.6395  157.6050 C.ar    1  UNL1        0.1054
     31 C         144.6717  141.8950  158.1268 C.ar    1  UNL1        0.0762
     32 CL        144.1443  142.5382  159.3751 Cl      1  UNL1       -0.0806
     33 C         145.8324  142.5074  157.4005 C.ar    1  UNL1        0.0130
     34 C         146.3599  141.8643  156.1522 C.ar    1  UNL1        0.0018
     35 C         145.7265  140.6087  155.6304 C.ar    1  UNL1        0.0130
     36 C         144.5657  139.9963  156.3567 C.ar    1  UNL1        0.0762
     37 CL        143.9324  138.7408  155.8348 Cl      1  UNL1       -0.0806
@<TRIPOS>BOND
     1     2     3    2
     2     3     4   am
     3     4     6    1
     4     6     7   ar
     5     7     8   ar
     6     8     9   ar
     7     9    10    1
     8     9    11   ar
     9    11    12   ar
    10     3     1    1
    11     1    13    1
    12    13    14    1
    13    14    15    1
    14    15    16    1
    15    16    17    1
    16    16    18    1
    17     1    20    1
    18    20    21    1
    19    21    22   ar
    20    22    23   ar
    21    23    24   ar
    22    24    25   ar
    23    25    26   ar
    24    26    27   ar
    25    27    28   ar
    26    28    29   ar
    27    29    30    1
    28    30    31   ar
    29    31    32    1
    30    31    33   ar
    31    33    34   ar
    32    34    35   ar
    33    35    36   ar
    34    36    37    1
    35    12     6   ar
    36    18    14    1
    37    26    21   ar
    38    36    30   ar
    39    29    25   ar
    40     4     5    1
    41    17    19    1
@<TRIPOS>MOLECULE
*****
 37 41 0 0 0
SMALL
GASTEIGER

@<TRIPOS>ATOM
      1 C         141.4070  144.4956  159.5408 C.3     1  UNL1        0.2588
      2 O         142.4950  146.2287  157.9401 O.2     1  UNL1       -0.2708
      3 C         141.2986  145.4374  158.3784 C.2     1  UNL1        0.2689
      4 N         139.9936  145.5878  157.6543 N.am    1  UNL1       -0.2664
      5 H         139.2083  145.0684  157.9420 H       1  UNL1        0.1564
      6 C         139.8850  146.5296  156.4918 C.ar    1  UNL1        0.1344
      7 C         139.0156  147.7478  156.5922 C.ar    1  UNL1        0.0368
      8 C         138.9071  148.6896  155.4297 C.ar    1  UNL1        0.0341
      9 C         139.6680  148.4131  154.1669 C.ar    1  UNL1        0.1593
     10 F         139.5595  149.3549  153.0045 F       1  UNL1       -0.2025
     11 C         140.5374  147.1949  154.0666 C.ar    1  UNL1        0.1298
     12 N         140.6459  146.2532  155.2291 N.ar    1  UNL1       -0.2267
     13 C         141.5606  143.0229  159.3011 C.3     1  UNL1        0.1261
     14 N         140.3482  142.1414  159.2466 N.3     1  UNL1       -0.2650
     15 C         138.8697  142.3760  159.1496 C.3     1  UNL1        0.1033
     16 C         138.6335  140.8949  159.1694 C.3     1  UNL1        0.1423
     17 O         137.4210  140.0134  159.1148 O.3     1  UNL1       -0.3816
     18 C         140.1118  140.6603  159.2663 C.3     1  UNL1        0.1033
     19 H         136.6242  140.5631  159.0527 H       1  UNL1        0.2105
     20 O         141.3619  145.0266  160.9430 O.3     1  UNL1       -0.4529
     21 C         140.3562  144.4880  161.9169 C.ar    1  UNL1        0.2312
     22 N         138.9916  145.1045  162.0039 N.ar    1  UNL1       -0.1892
     23 C         137.9860  144.5659  162.9778 C.ar    1  UNL1        0.2029
     24 N         138.3449  143.4107  163.8648 N.ar    1  UNL1       -0.2046
     25 C         139.7096  142.7942  163.7778 C.ar    1  UNL1        0.1715
     26 C         140.7152  143.3328  162.8039 C.ar    1  UNL1        0.1098
     27 C         141.9725  142.5263  162.9422 C.ar    1  UNL1        0.1283
     28 N         141.7438  141.4894  164.0016 N.ar    1  UNL1       -0.1619
     29 N         140.3452  141.6549  164.5180 N.ar    1  UNL1       -0.2103
     30 C         139.6963  140.8265  165.5870 C.ar    1  UNL1        0.1054
     31 C         138.7179  139.7527  165.2134 C.ar    1  UNL1        0.0762
     32 CL        138.3885  139.5071  163.7707 Cl      1  UNL1       -0.0806
     33 C         138.0690  138.9244  166.2824 C.ar    1  UNL1        0.0130
     34 C         138.3984  139.1699  167.7250 C.ar    1  UNL1        0.0018
     35 C         139.3768  140.2437  168.0986 C.ar    1  UNL1        0.0130
     36 C         140.0257  141.0721  167.0296 C.ar    1  UNL1        0.0762
     37 CL        141.0041  142.1459  167.4033 Cl      1  UNL1       -0.0806
@<TRIPOS>BOND
     1     2     3    2
     2     3     4   am
     3     4     6    1
     4     6     7   ar
     5     7     8   ar
     6     8     9   ar
     7     9    10    1
     8     9    11   ar
     9    11    12   ar
    10     3     1    1
    11     1    13    1
    12    13    14    1
    13    14    15    1
    14    15    16    1
    15    16    17    1
    16    16    18    1
    17     1    20    1
    18    20    21    1
    19    21    22   ar
    20    22    23   ar
    21    23    24   ar
    22    24    25   ar
    23    25    26   ar
    24    26    27   ar
    25    27    28   ar
    26    28    29   ar
    27    29    30    1
    28    30    31   ar
    29    31    32    1
    30    31    33   ar
    31    33    34   ar
    32    34    35   ar
    33    35    36   ar
    34    36    37    1
    35    12     6   ar
    36    18    14    1
    37    26    21   ar
    38    36    30   ar
    39    29    25   ar
    40     4     5    1
    41    17    19    1
@<TRIPOS>MOLECULE
*****
 37 41 0 0 0
SMALL
GASTEIGER

@<TRIPOS>ATOM
      1 C         138.7733  138.7951  163.8782 C.3     1  UNL1        0.2588
      2 O         137.6300  139.2136  166.1734 O.2     1  UNL1       -0.2708
      3 C         138.7986  139.3984  165.2514 C.2     1  UNL1        0.2689
      4 N         139.9925  140.1866  165.7023 N.am    1  UNL1       -0.2664
      5 H         140.7595  140.3079  165.0971 H       1  UNL1        0.1564
      6 C         140.0178  140.7900  167.0753 C.ar    1  UNL1        0.1344
      7 C         140.4366  142.2185  167.2592 C.ar    1  UNL1        0.0368
      8 C         140.4620  142.8219  168.6322 C.ar    1  UNL1        0.0341
      9 C         140.0685  141.9967  169.8215 C.ar    1  UNL1        0.1593
     10 F         140.0938  142.6001  171.1945 F       1  UNL1       -0.2025
     11 C         139.6497  140.5681  169.6376 C.ar    1  UNL1        0.1298
     12 N         139.6244  139.9648  168.2645 N.ar    1  UNL1       -0.2267
     13 C         139.6555  137.6254  163.5566 C.3     1  UNL1        0.1261
     14 N         141.0529  137.8537  163.0616 N.3     1  UNL1       -0.2650
     15 C         141.7287  137.7860  161.7241 C.3     1  UNL1        0.1033
     16 C         143.0292  138.1766  162.3614 C.3     1  UNL1        0.1423
     17 O         144.4266  138.4049  161.8664 O.3     1  UNL1       -0.3816
     18 C         142.3534  138.2443  163.6988 C.3     1  UNL1        0.1033
     19 H         144.4585  138.2566  160.9083 H       1  UNL1        0.2105
     20 O         137.8657  139.3614  162.8268 O.3     1  UNL1       -0.4529
     21 C         138.0526  140.7734  162.3561 C.ar    1  UNL1        0.2312
     22 N         137.5165  141.9128  163.1711 N.ar    1  UNL1       -0.1892
     23 C         137.7034  143.3247  162.7004 C.ar    1  UNL1        0.2029
     24 N         138.4264  143.5971  161.4146 N.ar    1  UNL1       -0.2046
     25 C         138.9625  142.4577  160.5996 C.ar    1  UNL1        0.1715
     26 C         138.7756  141.0458  161.0703 C.ar    1  UNL1        0.1098
     27 C         139.4091  140.1334  160.0623 C.ar    1  UNL1        0.1283
     28 N         139.9876  140.9814  158.9686 N.ar    1  UNL1       -0.1619
     29 N         139.7115  142.4179  159.3007 N.ar    1  UNL1       -0.2103
     30 C         140.1139  143.6060  158.4782 C.ar    1  UNL1        0.1054
     31 C         141.2650  144.4640  158.9128 C.ar    1  UNL1        0.0762
     32 CL        142.0138  144.1338  160.1699 Cl      1  UNL1       -0.0806
     33 C         141.6673  145.6521  158.0903 C.ar    1  UNL1        0.0130
     34 C         140.9186  145.9824  156.8332 C.ar    1  UNL1        0.0018
     35 C         139.7675  145.1244  156.3987 C.ar    1  UNL1        0.0130
     36 C         139.3651  143.9363  157.2211 C.ar    1  UNL1        0.0762
     37 CL        138.2140  143.0784  156.7864 Cl      1  UNL1       -0.0806
@<TRIPOS>BOND
     1     2     3    2
     2     3     4   am
     3     4     6    1
     4     6     7   ar
     5     7     8   ar
     6     8     9   ar
     7     9    10    1
     8     9    11   ar
     9    11    12   ar
    10     3     1    1
    11     1    13    1
    12    13    14    1
    13    14    15    1
    14    15    16    1
    15    16    17    1
    16    16    18    1
    17     1    20    1
    18    20    21    1
    19    21    22   ar
    20    22    23   ar
    21    23    24   ar
    22    24    25   ar
    23    25    26   ar
    24    26    27   ar
    25    27    28   ar
    26    28    29   ar
    27    29    30    1
    28    30    31   ar
    29    31    32    1
    30    31    33   ar
    31    33    34   ar
    32    34    35   ar
    33    35    36   ar
    34    36    37    1
    35    12     6   ar
    36    18    14    1
    37    26    21   ar
    38    36    30   ar
    39    29    25   ar
    40     4     5    1
    41    17    19    1
@<TRIPOS>MOLECULE
*****
 37 41 0 0 0
SMALL
GASTEIGER

@<TRIPOS>ATOM
      1 C         139.2352  138.1224  162.2128 C.3     1  UNL1        0.2588
      2 O         141.7049  137.6991  161.5262 O.2     1  UNL1       -0.2708
      3 C         140.3411  138.2350  161.2056 C.2     1  UNL1        0.2689
      4 N         140.0832  138.8836  159.8779 N.am    1  UNL1       -0.2664
      5 H         139.1881  139.2353  159.6675 H       1  UNL1        0.1564
      6 C         141.1891  138.9962  158.8708 C.ar    1  UNL1        0.1344
      7 C         141.2613  138.0306  157.7251 C.ar    1  UNL1        0.0368
      8 C         142.3672  138.1433  156.7180 C.ar    1  UNL1        0.0341
      9 C         143.4008  139.2215  156.8565 C.ar    1  UNL1        0.1593
     10 F         144.5067  139.3341  155.8493 F       1  UNL1       -0.2025
     11 C         143.3286  140.1870  158.0021 C.ar    1  UNL1        0.1298
     12 N         142.2226  140.0743  159.0093 N.ar    1  UNL1       -0.2267
     13 C         137.9289  138.8197  161.9734 C.3     1  UNL1        0.1261
     14 N         137.8508  140.3154  162.0563 N.3     1  UNL1       -0.2650
     15 C         138.1208  141.4458  161.1079 C.3     1  UNL1        0.1033
     16 C         137.7404  142.4305  162.1735 C.3     1  UNL1        0.1423
     17 O         137.6624  143.9262  162.2564 O.3     1  UNL1       -0.3816
     18 C         137.4705  141.3002  163.1218 C.3     1  UNL1        0.1033
     19 H         137.9259  144.3114  161.4060 H       1  UNL1        0.2105
     20 O         139.4356  137.3125  163.4593 O.3     1  UNL1       -0.4529
     21 C         139.2150  137.9390  164.8043 C.ar    1  UNL1        0.2312
     22 N         137.9531  137.6576  165.5649 N.ar    1  UNL1       -0.1892
     23 C         137.7325  138.2841  166.9098 C.ar    1  UNL1        0.2029
     24 N         138.7738  139.1920  167.4942 N.ar    1  UNL1       -0.2046
     25 C         140.0357  139.4734  166.7336 C.ar    1  UNL1        0.1715
     26 C         140.2563  138.8469  165.3887 C.ar    1  UNL1        0.1098
     27 C         141.5891  139.3064  164.8763 C.ar    1  UNL1        0.1283
     28 N         142.1922  140.2168  165.9046 N.ar    1  UNL1       -0.1619
     29 N         141.2321  140.3200  167.0524 N.ar    1  UNL1       -0.2103
     30 C         141.4332  141.1280  168.3001 C.ar    1  UNL1        0.1054
     31 C         142.1232  140.5194  169.4848 C.ar    1  UNL1        0.0762
     32 CL        142.6121  139.1027  169.4218 Cl      1  UNL1       -0.0806
     33 C         142.3243  141.3274  170.7325 C.ar    1  UNL1        0.0130
     34 C         141.8354  142.7441  170.7955 C.ar    1  UNL1        0.0018
     35 C         141.1454  143.3527  169.6108 C.ar    1  UNL1        0.0130
     36 C         140.9443  142.5447  168.3632 C.ar    1  UNL1        0.0762
     37 CL        140.2543  143.1534  167.1785 Cl      1  UNL1       -0.0806
@<TRIPOS>BOND
     1     2     3    2
     2     3     4   am
     3     4     6    1
     4     6     7   ar
     5     7     8   ar
     6     8     9   ar
     7     9    10    1
     8     9    11   ar
     9    11    12   ar
    10     3     1    1
    11     1    13    1
    12    13    14    1
    13    14    15    1
    14    15    16    1
    15    16    17    1
    16    16    18    1
    17     1    20    1
    18    20    21    1
    19    21    22   ar
    20    22    23   ar
    21    23    24   ar
    22    24    25   ar
    23    25    26   ar
    24    26    27   ar
    25    27    28   ar
    26    28    29   ar
    27    29    30    1
    28    30    31   ar
    29    31    32    1
    30    31    33   ar
    31    33    34   ar
    32    34    35   ar
    33    35    36   ar
    34    36    37    1
    35    12     6   ar
    36    18    14    1
    37    26    21   ar
    38    36    30   ar
    39    29    25   ar
    40     4     5    1
    41    17    19    1
@<TRIPOS>MOLECULE
*****
 37 41 0 0 0
SMALL
GASTEIGER

@<TRIPOS>ATOM
      1 C         142.6883  138.7375  165.1353 C.3     1  UNL1        0.2588
      2 O         140.3592  139.2189  166.1810 O.2     1  UNL1       -0.2708
      3 C         141.8415  139.4459  166.1509 C.2     1  UNL1        0.2689
      4 N         142.4773  140.3812  167.1363 N.am    1  UNL1       -0.2664
      5 H         143.4503  140.5301  167.1165 H       1  UNL1        0.1564
      6 C         141.6307  141.0895  168.1519 C.ar    1  UNL1        0.1344
      7 C         141.2488  142.5246  167.9403 C.ar    1  UNL1        0.0368
      8 C         140.4021  143.2329  168.9559 C.ar    1  UNL1        0.0341
      9 C         139.9373  142.5062  170.1830 C.ar    1  UNL1        0.1593
     10 F         139.0907  143.2146  171.1986 F       1  UNL1       -0.2025
     11 C         140.3192  141.0712  170.3946 C.ar    1  UNL1        0.1298
     12 N         141.1659  140.3628  169.3790 N.ar    1  UNL1       -0.2267
     13 C         144.0998  139.1836  164.8932 C.3     1  UNL1        0.1261
     14 N         144.3666  140.4458  164.1280 N.3     1  UNL1       -0.2650
     15 C         143.5177  141.4394  163.3916 C.3     1  UNL1        0.1033
     16 C         144.7440  142.2309  163.0459 C.3     1  UNL1        0.1423
     17 O         145.0109  143.4932  162.2807 O.3     1  UNL1       -0.3816
     18 C         145.5929  141.2374  163.7822 C.3     1  UNL1        0.1033
     19 H         144.1737  143.8523  161.9474 H       1  UNL1        0.2105
     20 O         142.1234  137.5831  164.3619 O.3     1  UNL1       -0.4529
     21 C         141.4148  137.8260  163.0623 C.ar    1  UNL1        0.2312
     22 N         139.9156  137.8212  163.0132 N.ar    1  UNL1       -0.1892
     23 C         139.2070  138.0641  161.7136 C.ar    1  UNL1        0.2029
     24 N         139.9976  138.3118  160.4632 N.ar    1  UNL1       -0.2046
     25 C         141.4968  138.3166  160.5123 C.ar    1  UNL1        0.1715
     26 C         142.2053  138.0737  161.8118 C.ar    1  UNL1        0.1098
     27 C         143.6817  138.1373  161.5538 C.ar    1  UNL1        0.1283
     28 N         143.8854  138.4195  160.0947 N.ar    1  UNL1       -0.1619
     29 N         142.5351  138.5303  159.4511 N.ar    1  UNL1       -0.2103
     30 C         142.2697  138.8064  158.0008 C.ar    1  UNL1        0.1054
     31 C         142.4282  137.7118  156.9876 C.ar    1  UNL1        0.0762
     32 CL        142.8522  136.3409  157.4247 Cl      1  UNL1       -0.0806
     33 C         142.1628  137.9878  155.5374 C.ar    1  UNL1        0.0130
     34 C         141.7388  139.3587  155.1002 C.ar    1  UNL1        0.0018
     35 C         141.5803  140.4533  156.1133 C.ar    1  UNL1        0.0130
     36 C         141.8457  140.1772  157.5636 C.ar    1  UNL1        0.0762
     37 CL        141.6871  141.2720  158.5767 Cl      1  UNL1       -0.0806
@<TRIPOS>BOND
     1     2     3    2
     2     3     4   am
     3     4     6    1
     4     6     7   ar
     5     7     8   ar
     6     8     9   ar
     7     9    10    1
     8     9    11   ar
     9    11    12   ar
    10     3     1    1
    11     1    13    1
    12    13    14    1
    13    14    15    1
    14    15    16    1
    15    16    17    1
    16    16    18    1
    17     1    20    1
    18    20    21    1
    19    21    22   ar
    20    22    23   ar
    21    23    24   ar
    22    24    25   ar
    23    25    26   ar
    24    26    27   ar
    25    27    28   ar
    26    28    29   ar
    27    29    30    1
    28    30    31   ar
    29    31    32    1
    30    31    33   ar
    31    33    34   ar
    32    34    35   ar
    33    35    36   ar
    34    36    37    1
    35    12     6   ar
    36    18    14    1
    37    26    21   ar
    38    36    30   ar
    39    29    25   ar
    40     4     5    1
    41    17    19    1
@<TRIPOS>MOLECULE
*****
 37 41 0 0 0
SMALL
GASTEIGER

@<TRIPOS>ATOM
      1 C         139.5224  139.6256  159.2651 C.3     1  UNL1        0.2588
      2 O         138.7703  138.9321  156.8769 O.2     1  UNL1       -0.2708
      3 C         138.6437  139.8355  158.0676 C.2     1  UNL1        0.2689
      4 N         137.6385  140.9488  158.0608 N.am    1  UNL1       -0.2664
      5 H         137.5554  141.5417  158.8423 H       1  UNL1        0.1564
      6 C         136.7598  141.1587  156.8634 C.ar    1  UNL1        0.1344
      7 C         137.0861  142.2375  155.8735 C.ar    1  UNL1        0.0368
      8 C         136.2075  142.4474  154.6761 C.ar    1  UNL1        0.0341
      9 C         135.0025  141.5784  154.4684 C.ar    1  UNL1        0.1593
     10 F         134.1239  141.7883  153.2710 F       1  UNL1       -0.2025
     11 C         134.6762  140.4996  155.4582 C.ar    1  UNL1        0.1298
     12 N         135.5549  140.2898  156.6557 N.ar    1  UNL1       -0.2267
     13 C         140.6594  140.5659  159.5351 C.3     1  UNL1        0.1261
     14 N         140.3936  142.0306  159.7202 N.3     1  UNL1       -0.2650
     15 C         140.4923  143.2453  158.8456 C.3     1  UNL1        0.1033
     16 C         140.0178  144.1018  159.9820 C.3     1  UNL1        0.1423
     17 O         139.7521  145.5664  160.1671 O.3     1  UNL1       -0.3816
     18 C         139.9192  142.8872  160.8564 C.3     1  UNL1        0.1033
     19 H         139.9419  146.0365  159.3401 H       1  UNL1        0.2105
     20 O         139.2639  138.4754  160.1926 O.3     1  UNL1       -0.4529
     21 C         139.8822  138.4604  161.5592 C.ar    1  UNL1        0.2312
     22 N         141.0918  137.6144  161.8259 N.ar    1  UNL1       -0.1892
     23 C         141.7100  137.5994  163.1924 C.ar    1  UNL1        0.2029
     24 N         141.1187  138.4305  164.2923 N.ar    1  UNL1       -0.2046
     25 C         139.9091  139.2765  164.0256 C.ar    1  UNL1        0.1715
     26 C         139.2909  139.2914  162.6591 C.ar    1  UNL1        0.1098
     27 C         138.1109  140.2169  162.6942 C.ar    1  UNL1        0.1283
     28 N         137.9999  140.7739  164.0825 N.ar    1  UNL1       -0.1619
     29 N         139.1113  140.1927  164.9054 N.ar    1  UNL1       -0.2103
     30 C         139.3780  140.4776  166.3537 C.ar    1  UNL1        0.1054
     31 C         140.2910  141.6029  166.7410 C.ar    1  UNL1        0.0762
     32 CL        140.9375  142.4433  165.6799 Cl      1  UNL1       -0.0806
     33 C         140.5577  141.8878  168.1893 C.ar    1  UNL1        0.0130
     34 C         139.9113  141.0474  169.2504 C.ar    1  UNL1        0.0018
     35 C         138.9983  139.9222  168.8632 C.ar    1  UNL1        0.0130
     36 C         138.7316  139.6372  167.4148 C.ar    1  UNL1        0.0762
     37 CL        137.8185  138.5119  167.0276 Cl      1  UNL1       -0.0806
@<TRIPOS>BOND
     1     2     3    2
     2     3     4   am
     3     4     6    1
     4     6     7   ar
     5     7     8   ar
     6     8     9   ar
     7     9    10    1
     8     9    11   ar
     9    11    12   ar
    10     3     1    1
    11     1    13    1
    12    13    14    1
    13    14    15    1
    14    15    16    1
    15    16    17    1
    16    16    18    1
    17     1    20    1
    18    20    21    1
    19    21    22   ar
    20    22    23   ar
    21    23    24   ar
    22    24    25   ar
    23    25    26   ar
    24    26    27   ar
    25    27    28   ar
    26    28    29   ar
    27    29    30    1
    28    30    31   ar
    29    31    32    1
    30    31    33   ar
    31    33    34   ar
    32    34    35   ar
    33    35    36   ar
    34    36    37    1
    35    12     6   ar
    36    18    14    1
    37    26    21   ar
    38    36    30   ar
    39    29    25   ar
    40     4     5    1
    41    17    19    1
