@<TRIPOS>MOLECULE
*****
 26 28 0 0 0
SMALL
GASTEIGER

@<TRIPOS>ATOM
      1 C         141.3748  140.8761  167.1587 C.3     1  UNL1        0.0847
      2 F         140.9606  136.8779  163.8658 F       1  UNL1       -0.2042
      3 C         140.3375  137.8103  164.8620 C.ar    1  UNL1        0.1399
      4 C         138.8842  137.6759  165.2080 C.ar    1  UNL1        0.0296
      5 C         138.2610  138.6083  166.2042 C.ar    1  UNL1        0.0020
      6 C         139.0912  139.6750  166.8544 C.ar    1  UNL1       -0.0028
      7 C         140.5445  139.8094  166.5084 C.ar    1  UNL1       -0.0052
      8 C         141.1677  138.8770  165.5122 C.ar    1  UNL1        0.0267
      9 N         141.5961  140.8543  168.6421 N.3     1  UNL1       -0.2676
     10 C         142.6388  139.9514  169.2316 C.3     1  UNL1        0.0896
     11 C         142.8601  139.9295  170.7150 C.3     1  UNL1        0.0862
     12 N         142.0387  140.8105  171.6089 N.3     1  UNL1       -0.2951
     13 C         140.9960  141.7135  171.0194 C.3     1  UNL1        0.0862
     14 C         140.7747  141.7353  169.5360 C.3     1  UNL1        0.0896
     15 H         142.6926  141.4073  172.1157 H       1  UNL1        0.1233
     16 C         141.9837  141.9647  166.3255 C.3     1  UNL1        0.0499
     17 C         141.1011  142.9366  165.5999 C.ar    1  UNL1        0.0137
     18 C         139.8034  143.3731  166.2127 C.ar    1  UNL1       -0.0012
     19 C         138.9208  144.3450  165.4872 C.ar    1  UNL1       -0.0001
     20 C         139.3358  144.8802  164.1489 C.ar    1  UNL1        0.0031
     21 C         140.6334  144.4437  163.5360 C.ar    1  UNL1        0.0368
     22 C         141.5160  143.4718  164.2616 C.ar    1  UNL1        0.1403
     23 O         142.8137  143.0353  163.6487 O.3     1  UNL1       -0.4240
     24 C         144.0474  143.8685  163.8317 C.3     1  UNL1        0.5086
     25 F         144.8554  143.7461  165.0896 F       1  UNL1       -0.1550
     26 F         144.4732  144.8243  162.7568 F       1  UNL1       -0.1550
@<TRIPOS>BOND
     1     2     3    1
     2     3     4   ar
     3     4     5   ar
     4     5     6   ar
     5     6     7   ar
     6     7     1    1
     7     1    16    1
     8    16    17    1
     9    17    18   ar
    10    18    19   ar
    11    19    20   ar
    12    20    21   ar
    13    21    22   ar
    14    22    23    1
    15    23    24    1
    16    24    25    1
    17    24    26    1
    18     1     9    1
    19     9    10    1
    20    10    11    1
    21    11    12    1
    22    12    13    1
    23    13    14    1
    24     7     8   ar
    25     8     3   ar
    26    22    17   ar
    27    14     9    1
    28    12    15    1
@<TRIPOS>MOLECULE
*****
 26 28 0 0 0
SMALL
GASTEIGER

@<TRIPOS>ATOM
      1 C         140.8251  141.2166  167.2851 C.3     1  UNL1        0.0847
      2 F         136.7703  137.9688  167.3843 F       1  UNL1       -0.2042
      3 C         138.0575  138.4210  166.7610 C.ar    1  UNL1        0.1399
      4 C         138.6046  137.7014  165.5640 C.ar    1  UNL1        0.0296
      5 C         139.8918  138.1535  164.9406 C.ar    1  UNL1        0.0020
      6 C         140.6320  139.3253  165.5143 C.ar    1  UNL1       -0.0028
      7 C         140.0849  140.0448  166.7113 C.ar    1  UNL1       -0.0052
      8 C         138.7977  139.5927  167.3347 C.ar    1  UNL1        0.0267
      9 N         140.7946  141.4725  168.7628 N.3     1  UNL1       -0.2676
     10 C         141.4951  140.5348  169.7009 C.3     1  UNL1        0.0896
     11 C         141.4645  140.7907  171.1786 C.3     1  UNL1        0.0862
     12 N         140.7335  141.9841  171.7182 N.3     1  UNL1       -0.2951
     13 C         140.0329  142.9218  170.7801 C.3     1  UNL1        0.0862
     14 C         140.0635  142.6660  169.3023 C.3     1  UNL1        0.0896
     15 H         141.4163  142.5392  172.2340 H       1  UNL1        0.1233
     16 C         141.5958  142.1325  166.3811 C.3     1  UNL1        0.0499
     17 C         140.8673  143.0973  165.4931 C.ar    1  UNL1        0.0137
     18 C         139.4486  143.4752  165.8005 C.ar    1  UNL1       -0.0012
     19 C         138.7202  144.4399  164.9125 C.ar    1  UNL1       -0.0001
     20 C         139.4105  145.0269  163.7171 C.ar    1  UNL1        0.0031
     21 C         140.8292  144.6491  163.4097 C.ar    1  UNL1        0.0368
     22 C         141.5576  143.6843  164.2977 C.ar    1  UNL1        0.1403
     23 O         142.9763  143.3065  163.9903 O.3     1  UNL1       -0.4240
     24 C         144.1075  144.0715  164.6108 C.3     1  UNL1        0.5086
     25 F         144.1091  145.5710  164.5720 F       1  UNL1       -0.1550
     26 F         145.2371  143.3371  165.2701 F       1  UNL1       -0.1550
@<TRIPOS>BOND
     1     2     3    1
     2     3     4   ar
     3     4     5   ar
     4     5     6   ar
     5     6     7   ar
     6     7     1    1
     7     1    16    1
     8    16    17    1
     9    17    18   ar
    10    18    19   ar
    11    19    20   ar
    12    20    21   ar
    13    21    22   ar
    14    22    23    1
    15    23    24    1
    16    24    25    1
    17    24    26    1
    18     1     9    1
    19     9    10    1
    20    10    11    1
    21    11    12    1
    22    12    13    1
    23    13    14    1
    24     7     8   ar
    25     8     3   ar
    26    22    17   ar
    27    14     9    1
    28    12    15    1
@<TRIPOS>MOLECULE
*****
 26 28 0 0 0
SMALL
GASTEIGER

@<TRIPOS>ATOM
      1 C         140.6665  141.1142  167.3844 C.3     1  UNL1        0.0847
      2 F         141.3605  137.2196  164.0153 F       1  UNL1       -0.2042
      3 C         140.4795  137.9707  164.9691 C.ar    1  UNL1        0.1399
      4 C         139.0646  137.5255  165.1922 C.ar    1  UNL1        0.0296
      5 C         138.1836  138.2766  166.1461 C.ar    1  UNL1        0.0020
      6 C         138.7175  139.4728  166.8768 C.ar    1  UNL1       -0.0028
      7 C         140.1324  139.9179  166.6536 C.ar    1  UNL1       -0.0052
      8 C         141.0134  139.1669  165.6998 C.ar    1  UNL1        0.0267
      9 N         141.1536  140.9748  168.7962 N.3     1  UNL1       -0.2676
     10 C         142.3775  140.1589  169.0901 C.3     1  UNL1        0.0896
     11 C         142.8647  140.0195  170.5020 C.3     1  UNL1        0.0862
     12 N         142.1279  140.6959  171.6198 N.3     1  UNL1       -0.2951
     13 C         140.9040  141.5118  171.3259 C.3     1  UNL1        0.0862
     14 C         140.4168  141.6512  169.9141 C.3     1  UNL1        0.0896
     15 H         142.7940  141.3185  172.0772 H       1  UNL1        0.1233
     16 C         140.7133  142.4498  166.7033 C.3     1  UNL1        0.0499
     17 C         141.8132  142.7577  165.7308 C.ar    1  UNL1        0.0137
     18 C         143.2447  142.5487  166.1270 C.ar    1  UNL1       -0.0012
     19 C         144.3446  142.8566  165.1546 C.ar    1  UNL1       -0.0001
     20 C         144.0129  143.3734  163.7862 C.ar    1  UNL1        0.0031
     21 C         142.5813  143.5823  163.3900 C.ar    1  UNL1        0.0368
     22 C         141.4814  143.2745  164.3623 C.ar    1  UNL1        0.1403
     23 O         140.0499  143.4834  163.9662 O.3     1  UNL1       -0.4240
     24 C         139.4342  144.8472  164.0705 C.3     1  UNL1        0.5086
     25 F         139.4425  145.7666  162.8853 F       1  UNL1       -0.1550
     26 F         138.8102  145.2918  165.3601 F       1  UNL1       -0.1550
@<TRIPOS>BOND
     1     2     3    1
     2     3     4   ar
     3     4     5   ar
     4     5     6   ar
     5     6     7   ar
     6     7     1    1
     7     1    16    1
     8    16    17    1
     9    17    18   ar
    10    18    19   ar
    11    19    20   ar
    12    20    21   ar
    13    21    22   ar
    14    22    23    1
    15    23    24    1
    16    24    25    1
    17    24    26    1
    18     1     9    1
    19     9    10    1
    20    10    11    1
    21    11    12    1
    22    12    13    1
    23    13    14    1
    24     7     8   ar
    25     8     3   ar
    26    22    17   ar
    27    14     9    1
    28    12    15    1
@<TRIPOS>MOLECULE
*****
 26 28 0 0 0
SMALL
GASTEIGER

@<TRIPOS>ATOM
      1 C         141.5835  141.8499  164.6376 C.3     1  UNL1        0.0847
      2 F         138.2756  145.5479  166.1813 F       1  UNL1       -0.2042
      3 C         138.6753  144.4927  165.1930 C.ar    1  UNL1        0.1399
      4 C         137.8208  144.2313  163.9883 C.ar    1  UNL1        0.0296
      5 C         138.2205  143.1761  162.9999 C.ar    1  UNL1        0.0020
      6 C         139.4747  142.3823  163.2164 C.ar    1  UNL1       -0.0028
      7 C         140.3292  142.6437  164.4211 C.ar    1  UNL1       -0.0052
      8 C         139.9295  143.6989  165.4094 C.ar    1  UNL1        0.0267
      9 N         142.7945  142.1160  163.7934 N.3     1  UNL1       -0.2676
     10 C         143.1540  143.5236  163.4201 C.3     1  UNL1        0.0896
     11 C         144.3650  143.7897  162.5760 C.3     1  UNL1        0.0862
     12 N         145.2166  142.6481  162.1051 N.3     1  UNL1       -0.2951
     13 C         144.8571  141.2405  162.4784 C.3     1  UNL1        0.0862
     14 C         143.6461  140.9744  163.3226 C.3     1  UNL1        0.0896
     15 H         146.1574  142.8161  162.4614 H       1  UNL1        0.1233
     16 C         141.6266  140.7901  165.6981 C.3     1  UNL1        0.0499
     17 C         140.3926  140.0003  166.0199 C.ar    1  UNL1        0.0137
     18 C         139.7095  140.1822  167.3429 C.ar    1  UNL1       -0.0012
     19 C         138.4755  139.3925  167.6647 C.ar    1  UNL1       -0.0001
     20 C         137.9246  138.4209  166.6635 C.ar    1  UNL1        0.0031
     21 C         138.6078  138.2389  165.3406 C.ar    1  UNL1        0.0368
     22 C         139.8417  139.0286  165.0188 C.ar    1  UNL1        0.1403
     23 O         140.5249  138.8467  163.6958 O.3     1  UNL1       -0.4240
     24 C         141.1663  137.5337  163.3572 C.3     1  UNL1        0.5086
     25 F         141.6671  137.2803  161.9662 F       1  UNL1       -0.1550
     26 F         141.3069  136.4742  164.4097 F       1  UNL1       -0.1550
@<TRIPOS>BOND
     1     2     3    1
     2     3     4   ar
     3     4     5   ar
     4     5     6   ar
     5     6     7   ar
     6     7     1    1
     7     1    16    1
     8    16    17    1
     9    17    18   ar
    10    18    19   ar
    11    19    20   ar
    12    20    21   ar
    13    21    22   ar
    14    22    23    1
    15    23    24    1
    16    24    25    1
    17    24    26    1
    18     1     9    1
    19     9    10    1
    20    10    11    1
    21    11    12    1
    22    12    13    1
    23    13    14    1
    24     7     8   ar
    25     8     3   ar
    26    22    17   ar
    27    14     9    1
    28    12    15    1
@<TRIPOS>MOLECULE
*****
 26 28 0 0 0
SMALL
GASTEIGER

@<TRIPOS>ATOM
      1 C         140.4476  141.1293  167.5007 C.3     1  UNL1        0.0847
      2 F         136.6362  137.6046  167.2789 F       1  UNL1       -0.2042
      3 C         137.9126  138.1736  166.7341 C.ar    1  UNL1        0.1399
      4 C         138.5599  137.5493  165.5336 C.ar    1  UNL1        0.0296
      5 C         139.8363  138.1183  164.9887 C.ar    1  UNL1        0.0020
      6 C         140.4656  139.3116  165.6444 C.ar    1  UNL1       -0.0028
      7 C         139.8184  139.9359  166.8450 C.ar    1  UNL1       -0.0052
      8 C         138.5419  139.3669  167.3898 C.ar    1  UNL1        0.0267
      9 N         141.0244  141.0098  168.8803 N.3     1  UNL1       -0.2676
     10 C         140.4083  141.7672  170.0190 C.3     1  UNL1        0.0896
     11 C         140.9851  141.6478  171.3985 C.3     1  UNL1        0.0862
     12 N         142.1779  140.7709  171.6393 N.3     1  UNL1       -0.2951
     13 C         142.7941  140.0134  170.5006 C.3     1  UNL1        0.0862
     14 C         142.2173  140.1329  169.1210 C.3     1  UNL1        0.0896
     15 H         141.8996  140.0800  172.3361 H       1  UNL1        0.1233
     16 C         140.5001  142.4421  166.7770 C.3     1  UNL1        0.0499
     17 C         141.5703  142.6936  165.7564 C.ar    1  UNL1        0.0137
     18 C         143.0153  142.6301  166.1537 C.ar    1  UNL1       -0.0012
     19 C         144.0854  142.8817  165.1332 C.ar    1  UNL1       -0.0001
     20 C         143.7106  143.1967  163.7154 C.ar    1  UNL1        0.0031
     21 C         142.2655  143.2603  163.3181 C.ar    1  UNL1        0.0368
     22 C         141.1954  143.0087  164.3386 C.ar    1  UNL1        0.1403
     23 O         139.7503  143.0723  163.9414 O.3     1  UNL1       -0.4240
     24 C         139.0048  144.3709  164.0291 C.3     1  UNL1        0.5086
     25 F         139.5322  145.5874  163.3277 F       1  UNL1       -0.1550
     26 F         137.7317  144.4530  164.8182 F       1  UNL1       -0.1550
@<TRIPOS>BOND
     1     2     3    1
     2     3     4   ar
     3     4     5   ar
     4     5     6   ar
     5     6     7   ar
     6     7     1    1
     7     1    16    1
     8    16    17    1
     9    17    18   ar
    10    18    19   ar
    11    19    20   ar
    12    20    21   ar
    13    21    22   ar
    14    22    23    1
    15    23    24    1
    16    24    25    1
    17    24    26    1
    18     1     9    1
    19     9    10    1
    20    10    11    1
    21    11    12    1
    22    12    13    1
    23    13    14    1
    24     7     8   ar
    25     8     3   ar
    26    22    17   ar
    27    14     9    1
    28    12    15    1
@<TRIPOS>MOLECULE
*****
 26 28 0 0 0
SMALL
GASTEIGER

@<TRIPOS>ATOM
      1 C         141.1311  142.0935  167.0625 C.3     1  UNL1        0.0847
      2 F         138.0655  144.7583  163.8220 F       1  UNL1       -0.2042
      3 C         138.4803  143.4573  164.4426 C.ar    1  UNL1        0.1399
      4 C         137.7773  142.1877  164.0637 C.ar    1  UNL1        0.0296
      5 C         138.1921  140.8866  164.6843 C.ar    1  UNL1        0.0020
      6 C         139.3100  140.8552  165.6839 C.ar    1  UNL1       -0.0028
      7 C         140.0131  142.1249  166.0629 C.ar    1  UNL1       -0.0052
      8 C         139.5983  143.4259  165.4422 C.ar    1  UNL1        0.0267
      9 N         140.8525  141.7177  168.4877 N.3     1  UNL1       -0.2676
     10 C         140.4380  142.7695  169.4734 C.3     1  UNL1        0.0896
     11 C         140.1594  142.3937  170.8986 C.3     1  UNL1        0.0862
     12 N         140.2954  140.9660  171.3380 N.3     1  UNL1       -0.2951
     13 C         140.7099  139.9140  170.3523 C.3     1  UNL1        0.0862
     14 C         140.9885  140.2899  168.9271 C.3     1  UNL1        0.0896
     15 H         139.3869  140.6833  171.7057 H       1  UNL1        0.1233
     16 C         142.5276  142.4380  166.6369 C.3     1  UNL1        0.0499
     17 C         143.3062  141.4863  165.7778 C.ar    1  UNL1        0.0137
     18 C         143.0147  140.0159  165.8331 C.ar    1  UNL1       -0.0012
     19 C         143.7932  139.0641  164.9740 C.ar    1  UNL1       -0.0001
     20 C         144.8632  139.5828  164.0597 C.ar    1  UNL1        0.0031
     21 C         145.1547  141.0531  164.0044 C.ar    1  UNL1        0.0368
     22 C         144.3762  142.0049  164.8635 C.ar    1  UNL1        0.1403
     23 O         144.6677  143.4752  164.8082 O.3     1  UNL1       -0.4240
     24 C         143.9563  144.3440  163.8138 C.3     1  UNL1        0.5086
     25 F         144.5274  144.5338  162.4398 F       1  UNL1       -0.1550
     26 F         142.6737  145.0231  164.1932 F       1  UNL1       -0.1550
@<TRIPOS>BOND
     1     2     3    1
     2     3     4   ar
     3     4     5   ar
     4     5     6   ar
     5     6     7   ar
     6     7     1    1
     7     1    16    1
     8    16    17    1
     9    17    18   ar
    10    18    19   ar
    11    19    20   ar
    12    20    21   ar
    13    21    22   ar
    14    22    23    1
    15    23    24    1
    16    24    25    1
    17    24    26    1
    18     1     9    1
    19     9    10    1
    20    10    11    1
    21    11    12    1
    22    12    13    1
    23    13    14    1
    24     7     8   ar
    25     8     3   ar
    26    22    17   ar
    27    14     9    1
    28    12    15    1
@<TRIPOS>MOLECULE
*****
 26 28 0 0 0
SMALL
GASTEIGER

@<TRIPOS>ATOM
      1 C         141.4290  141.4315  164.2771 C.3     1  UNL1        0.0847
      2 F         138.5997  145.3877  166.1057 F       1  UNL1       -0.2042
      3 C         138.8127  144.3019  165.0929 C.ar    1  UNL1        0.1399
      4 C         137.8239  144.1084  163.9816 C.ar    1  UNL1        0.0296
      5 C         138.0369  143.0227  162.9688 C.ar    1  UNL1        0.0020
      6 C         139.2386  142.1304  163.0673 C.ar    1  UNL1       -0.0028
      7 C         140.2273  142.3239  164.1786 C.ar    1  UNL1       -0.0052
      8 C         140.0143  143.4096  165.1914 C.ar    1  UNL1        0.0267
      9 N         142.7148  141.8292  163.6147 N.3     1  UNL1       -0.2676
     10 C         142.7611  143.0433  162.7351 C.3     1  UNL1        0.0896
     11 C         144.0468  143.4410  162.0727 C.3     1  UNL1        0.0862
     12 N         145.2862  142.6246  162.2899 N.3     1  UNL1       -0.2951
     13 C         145.2399  141.4104  163.1695 C.3     1  UNL1        0.0862
     14 C         143.9542  141.0127  163.8319 C.3     1  UNL1        0.0896
     15 H         145.9852  143.2510  162.6891 H       1  UNL1        0.1233
     16 C         141.3450  140.1416  165.0380 C.3     1  UNL1        0.0499
     17 C         141.3042  140.1566  166.5374 C.ar    1  UNL1        0.0137
     18 C         142.5711  140.3342  167.3205 C.ar    1  UNL1       -0.0012
     19 C         142.5303  140.3492  168.8198 C.ar    1  UNL1       -0.0001
     20 C         141.2225  140.1865  169.5361 C.ar    1  UNL1        0.0031
     21 C         139.9555  140.0089  168.7530 C.ar    1  UNL1        0.0368
     22 C         139.9963  139.9939  167.2537 C.ar    1  UNL1        0.1403
     23 O         138.7293  139.8163  166.4706 O.3     1  UNL1       -0.4240
     24 C         138.0292  138.4898  166.4677 C.3     1  UNL1        0.5086
     25 F         136.9477  138.2103  167.4689 F       1  UNL1       -0.1550
     26 F         138.4105  137.4426  165.4636 F       1  UNL1       -0.1550
@<TRIPOS>BOND
     1     2     3    1
     2     3     4   ar
     3     4     5   ar
     4     5     6   ar
     5     6     7   ar
     6     7     1    1
     7     1    16    1
     8    16    17    1
     9    17    18   ar
    10    18    19   ar
    11    19    20   ar
    12    20    21   ar
    13    21    22   ar
    14    22    23    1
    15    23    24    1
    16    24    25    1
    17    24    26    1
    18     1     9    1
    19     9    10    1
    20    10    11    1
    21    11    12    1
    22    12    13    1
    23    13    14    1
    24     7     8   ar
    25     8     3   ar
    26    22    17   ar
    27    14     9    1
    28    12    15    1
@<TRIPOS>MOLECULE
*****
 26 28 0 0 0
SMALL
GASTEIGER

@<TRIPOS>ATOM
      1 C         139.8631  141.7764  165.6874 C.3     1  UNL1        0.0847
      2 F         137.0062  137.7079  167.1991 F       1  UNL1       -0.2042
      3 C         138.0485  138.3000  166.2975 C.ar    1  UNL1        0.1399
      4 C         138.7048  137.4501  165.2502 C.ar    1  UNL1        0.0296
      5 C         139.7471  138.0423  164.3486 C.ar    1  UNL1        0.0020
      6 C         140.1332  139.4843  164.4943 C.ar    1  UNL1       -0.0028
      7 C         139.4770  140.3343  165.5416 C.ar    1  UNL1       -0.0052
      8 C         138.4346  139.7421  166.4432 C.ar    1  UNL1        0.0267
      9 N         139.4104  142.7806  164.6691 N.3     1  UNL1       -0.2676
     10 C         138.0085  142.7305  164.1381 C.3     1  UNL1        0.0896
     11 C         137.5559  143.7346  163.1198 C.3     1  UNL1        0.0862
     12 N         138.5051  144.7889  162.6327 N.3     1  UNL1       -0.2951
     13 C         139.9071  144.8391  163.1638 C.3     1  UNL1        0.0862
     14 C         140.3598  143.8349  164.1820 C.3     1  UNL1        0.0896
     15 H         138.0777  145.6905  162.8443 H       1  UNL1        0.1233
     16 C         140.7017  142.2144  166.8513 C.3     1  UNL1        0.0499
     17 C         141.1292  141.2156  167.8857 C.ar    1  UNL1        0.0137
     18 C         140.3916  141.1228  169.1885 C.ar    1  UNL1       -0.0012
     19 C         140.8191  140.1241  170.2228 C.ar    1  UNL1       -0.0001
     20 C         141.9841  139.2182  169.9543 C.ar    1  UNL1        0.0031
     21 C         142.7216  139.3111  168.6515 C.ar    1  UNL1        0.0368
     22 C         142.2942  140.3098  167.6171 C.ar    1  UNL1        0.1403
     23 O         143.0318  140.4026  166.3143 O.3     1  UNL1       -0.4240
     24 C         143.5799  139.1625  165.6728 C.3     1  UNL1        0.5086
     25 F         142.7959  137.8845  165.7195 F       1  UNL1       -0.1550
     26 F         144.9121  139.2003  164.9844 F       1  UNL1       -0.1550
@<TRIPOS>BOND
     1     2     3    1
     2     3     4   ar
     3     4     5   ar
     4     5     6   ar
     5     6     7   ar
     6     7     1    1
     7     1    16    1
     8    16    17    1
     9    17    18   ar
    10    18    19   ar
    11    19    20   ar
    12    20    21   ar
    13    21    22   ar
    14    22    23    1
    15    23    24    1
    16    24    25    1
    17    24    26    1
    18     1     9    1
    19     9    10    1
    20    10    11    1
    21    11    12    1
    22    12    13    1
    23    13    14    1
    24     7     8   ar
    25     8     3   ar
    26    22    17   ar
    27    14     9    1
    28    12    15    1
@<TRIPOS>MOLECULE
*****
 26 28 0 0 0
SMALL
GASTEIGER

@<TRIPOS>ATOM
      1 C         141.6072  141.0278  167.0758 C.3     1  UNL1        0.0847
      2 F         145.1126  139.4907  163.5616 F       1  UNL1       -0.2042
      3 C         144.5188  140.5694  164.4183 C.ar    1  UNL1        0.1399
      4 C         145.0840  141.9581  164.3747 C.ar    1  UNL1        0.0296
      5 C         144.4902  143.0368  165.2314 C.ar    1  UNL1        0.0020
      6 C         143.3313  142.7267  166.1317 C.ar    1  UNL1       -0.0028
      7 C         142.7662  141.3380  166.1754 C.ar    1  UNL1       -0.0052
      8 C         143.3599  140.2593  165.3187 C.ar    1  UNL1        0.0267
      9 N         141.8020  140.9886  168.5626 N.3     1  UNL1       -0.2676
     10 C         141.1333  142.0102  169.4338 C.3     1  UNL1        0.0896
     11 C         141.3282  141.9710  170.9206 C.3     1  UNL1        0.0862
     12 N         142.1918  140.9102  171.5361 N.3     1  UNL1       -0.2951
     13 C         142.8606  139.8886  170.6648 C.3     1  UNL1        0.0862
     14 C         142.6657  139.9278  169.1781 C.3     1  UNL1        0.0896
     15 H         141.6045  140.3973  172.1937 H       1  UNL1        0.1233
     16 C         140.2534  140.7569  166.4894 C.3     1  UNL1        0.0499
     17 C         139.5030  141.8551  165.7958 C.ar    1  UNL1        0.0137
     18 C         139.8756  143.2876  166.0389 C.ar    1  UNL1       -0.0012
     19 C         139.1253  144.3857  165.3453 C.ar    1  UNL1       -0.0001
     20 C         138.0024  144.0513  164.4087 C.ar    1  UNL1        0.0031
     21 C         137.6299  142.6188  164.1656 C.ar    1  UNL1        0.0368
     22 C         138.3802  141.5207  164.8591 C.ar    1  UNL1        0.1403
     23 O         138.0077  140.0882  164.6160 O.3     1  UNL1       -0.4240
     24 C         138.4079  139.4159  163.3363 C.3     1  UNL1        0.5086
     25 F         137.5425  139.5462  162.1181 F       1  UNL1       -0.1550
     26 F         139.6737  138.6133  163.2746 F       1  UNL1       -0.1550
@<TRIPOS>BOND
     1     2     3    1
     2     3     4   ar
     3     4     5   ar
     4     5     6   ar
     5     6     7   ar
     6     7     1    1
     7     1    16    1
     8    16    17    1
     9    17    18   ar
    10    18    19   ar
    11    19    20   ar
    12    20    21   ar
    13    21    22   ar
    14    22    23    1
    15    23    24    1
    16    24    25    1
    17    24    26    1
    18     1     9    1
    19     9    10    1
    20    10    11    1
    21    11    12    1
    22    12    13    1
    23    13    14    1
    24     7     8   ar
    25     8     3   ar
    26    22    17   ar
    27    14     9    1
    28    12    15    1
