@<TRIPOS>MOLECULE
*****
 31 34 0 0 0
SMALL
GASTEIGER

@<TRIPOS>ATOM
      1 N         142.2976  138.0618  162.3310 N.3     1  UNL1       -0.2921
      2 H         142.9823  138.5187  161.7286 H       1  UNL1        0.1236
      3 C         142.1963  138.8901  163.5774 C.3     1  UNL1        0.0761
      4 C         142.4167  138.4042  164.9793 C.3     1  UNL1        0.0390
      5 C         142.2135  139.5636  165.9091 C.3     1  UNL1        0.0952
      6 N         141.8675  140.7660  165.0818 N.am    1  UNL1       -0.2747
      7 C         141.5822  142.1430  165.6039 C.2     1  UNL1        0.2491
      8 O         141.2487  143.2523  164.6509 O.2     1  UNL1       -0.2699
      9 C         141.8569  140.3498  163.6407 C.3     1  UNL1        0.1094
     10 C         141.6304  142.4107  167.0791 C.ar    1  UNL1        0.0544
     11 C         140.3805  142.7980  167.8122 C.ar    1  UNL1        0.0046
     12 C         140.4287  143.0657  169.2874 C.ar    1  UNL1        0.0010
     13 C         141.7268  142.9460  170.0293 C.ar    1  UNL1        0.0114
     14 C         142.9768  142.5586  169.2961 C.ar    1  UNL1        0.0578
     15 CL        144.2749  142.4390  170.0381 Cl      1  UNL1       -0.0822
     16 C         142.9286  142.2909  167.8210 C.ar    1  UNL1        0.0159
     17 C         141.0784  137.8165  161.4922 C.3     1  UNL1        0.1148
     18 N         139.2053  139.4709  160.5437 N.ar    1  UNL1       -0.3070
     19 C         139.1512  140.4966  159.4505 C.ar    1  UNL1        0.1786
     20 N         140.4969  140.5405  158.7890 N.ar    1  UNL1       -0.2226
     21 C         141.3826  139.5418  159.4734 C.ar    1  UNL1        0.1147
     22 C         140.5844  138.8808  160.5578 C.ar    1  UNL1        0.0739
     23 C         138.0783  139.1003  161.4615 C.3     1  UNL1        0.1340
     24 C         138.6040  139.4328  165.9183 C.ar    1  UNL1        0.0684
     25 C         138.8096  138.1133  165.2352 C.ar    1  UNL1        0.0100
     26 C         138.6343  138.0024  163.7496 C.ar    1  UNL1       -0.0017
     27 C         138.2536  139.2111  162.9471 C.ar    1  UNL1        0.0005
     28 C         138.0480  140.5306  163.6302 C.ar    1  UNL1       -0.0017
     29 C         138.2233  140.6414  165.1158 C.ar    1  UNL1        0.0100
     30 N         138.9545  139.6544  168.8895 N.1     1  UNL1       -0.1908
     31 C         138.7793  139.5436  167.4039 C.1     1  UNL1        0.1004
@<TRIPOS>BOND
     1    30    31    3
     2    31    24    1
     3    24    25   ar
     4    25    26   ar
     5    26    27   ar
     6    27    23    1
     7    23    18    1
     8    18    19   ar
     9    19    20   ar
    10    20    21   ar
    11    21    22   ar
    12    22    17    1
    13    17     1    1
    14     3     1    1
    15     3     4    1
    16     4     5    1
    17     5     6    1
    18     6     7   am
    19     7     8    2
    20     7    10    1
    21    10    11   ar
    22    11    12   ar
    23    12    13   ar
    24    13    14   ar
    25    14    15    1
    26    14    16   ar
    27     6     9    1
    28    27    28   ar
    29    28    29   ar
    30    29    24   ar
    31    22    18   ar
    32     9     3    1
    33    16    10   ar
    34     1     2    1
@<TRIPOS>MOLECULE
*****
 31 34 0 0 0
SMALL
GASTEIGER

@<TRIPOS>ATOM
      1 N         144.4858  139.1956  162.9241 N.3     1  UNL1       -0.2921
      2 H         145.4813  139.3778  163.0511 H       1  UNL1        0.1236
      3 C         143.8254  139.4590  164.2448 C.3     1  UNL1        0.0761
      4 C         143.7610  138.5086  165.4035 C.3     1  UNL1        0.0390
      5 C         143.0092  139.1814  166.5136 C.3     1  UNL1        0.0952
      6 N         142.6090  140.5475  166.0409 N.am    1  UNL1       -0.2747
      7 C         141.8394  141.5636  166.8316 C.2     1  UNL1        0.2491
      8 O         141.5103  142.8948  166.2234 O.2     1  UNL1       -0.2699
      9 C         143.1134  140.7191  164.6387 C.3     1  UNL1        0.1094
     10 C         141.3988  141.2487  168.2305 C.ar    1  UNL1        0.0544
     11 C         142.3681  141.3744  169.3682 C.ar    1  UNL1        0.0046
     12 C         141.9277  141.0595  170.7670 C.ar    1  UNL1        0.0010
     13 C         140.5178  140.6188  171.0281 C.ar    1  UNL1        0.0114
     14 C         139.5485  140.4930  169.8903 C.ar    1  UNL1        0.0578
     15 CL        138.1387  140.0523  170.1513 Cl      1  UNL1       -0.0822
     16 C         139.9890  140.8080  168.4914 C.ar    1  UNL1        0.0159
     17 C         144.0579  139.9591  161.7059 C.3     1  UNL1        0.1148
     18 N         141.4968  139.7550  160.9680 N.ar    1  UNL1       -0.3070
     19 C         140.7578  139.0080  159.8976 C.ar    1  UNL1        0.1786
     20 N         141.7595  138.2208  159.1057 N.ar    1  UNL1       -0.2226
     21 C         143.1177  138.4813  159.6868 C.ar    1  UNL1        0.1147
     22 C         142.9554  139.4295  160.8377 C.ar    1  UNL1        0.0739
     23 C         140.8849  140.6674  161.9893 C.3     1  UNL1        0.1340
     24 C         138.5554  138.9479  165.4341 C.ar    1  UNL1        0.0684
     25 C         139.4432  138.0612  164.6122 C.ar    1  UNL1        0.0100
     26 C         140.2198  138.6344  163.4639 C.ar    1  UNL1       -0.0017
     27 C         140.1084  140.0942  163.1376 C.ar    1  UNL1        0.0005
     28 C         139.2206  140.9808  163.9595 C.ar    1  UNL1       -0.0017
     29 C         138.4441  140.4077  165.1077 C.ar    1  UNL1        0.0100
     30 N         137.0024  137.8015  167.7306 N.1     1  UNL1       -0.1908
     31 C         137.7789  138.3747  166.5823 C.1     1  UNL1        0.1004
@<TRIPOS>BOND
     1    30    31    3
     2    31    24    1
     3    24    25   ar
     4    25    26   ar
     5    26    27   ar
     6    27    23    1
     7    23    18    1
     8    18    19   ar
     9    19    20   ar
    10    20    21   ar
    11    21    22   ar
    12    22    17    1
    13    17     1    1
    14     3     1    1
    15     3     4    1
    16     4     5    1
    17     5     6    1
    18     6     7   am
    19     7     8    2
    20     7    10    1
    21    10    11   ar
    22    11    12   ar
    23    12    13   ar
    24    13    14   ar
    25    14    15    1
    26    14    16   ar
    27     6     9    1
    28    27    28   ar
    29    28    29   ar
    30    29    24   ar
    31    22    18   ar
    32     9     3    1
    33    16    10   ar
    34     1     2    1
@<TRIPOS>MOLECULE
*****
 31 34 0 0 0
SMALL
GASTEIGER

@<TRIPOS>ATOM
      1 N         144.7054  141.1558  162.7023 N.3     1  UNL1       -0.2921
      2 H         145.3389  141.9551  162.7160 H       1  UNL1        0.1236
      3 C         143.8531  141.2576  163.9323 C.3     1  UNL1        0.0761
      4 C         142.8560  142.3388  164.2270 C.3     1  UNL1        0.0390
      5 C         142.2348  142.0455  165.5605 C.3     1  UNL1        0.0952
      6 N         142.8480  140.7831  166.0899 N.am    1  UNL1       -0.2747
      7 C         142.5189  140.1235  167.3962 C.2     1  UNL1        0.2491
      8 O         143.2178  138.8573  167.7942 O.2     1  UNL1       -0.2699
      9 C         143.8481  140.2962  165.0837 C.3     1  UNL1        0.1094
     10 C         141.4907  140.7300  168.3047 C.ar    1  UNL1        0.0544
     11 C         140.3391  139.9019  168.7925 C.ar    1  UNL1        0.0046
     12 C         139.3110  140.5084  169.7009 C.ar    1  UNL1        0.0010
     13 C         139.4345  141.9429  170.1214 C.ar    1  UNL1        0.0114
     14 C         140.5862  142.7710  169.6335 C.ar    1  UNL1        0.0578
     15 CL        140.7097  144.2055  170.0541 Cl      1  UNL1       -0.0822
     16 C         141.6143  142.1646  168.7251 C.ar    1  UNL1        0.0159
     17 C         144.0654  141.1337  161.3459 C.3     1  UNL1        0.1148
     18 N         141.8113  139.7037  161.2070 N.ar    1  UNL1       -0.3070
     19 C         141.4226  138.3938  160.5881 C.ar    1  UNL1        0.1786
     20 N         142.6343  137.8224  159.9130 N.ar    1  UNL1       -0.2226
     21 C         143.7717  138.7793  160.1147 C.ar    1  UNL1        0.1147
     22 C         143.2631  139.9420  160.9144 C.ar    1  UNL1        0.0739
     23 C         140.9070  140.6153  161.9823 C.3     1  UNL1        0.1340
     24 C         138.5638  139.0206  165.4775 C.ar    1  UNL1        0.0684
     25 C         138.0691  140.2224  164.7286 C.ar    1  UNL1        0.0100
     26 C         138.8502  140.7540  163.5636 C.ar    1  UNL1       -0.0017
     27 C         140.1259  140.0838  163.1474 C.ar    1  UNL1        0.0005
     28 C         140.6206  138.8819  163.8962 C.ar    1  UNL1       -0.0017
     29 C         139.8395  138.3503  165.0613 C.ar    1  UNL1        0.0100
     30 N         137.0016  137.9574  167.8076 N.1     1  UNL1       -0.1908
     31 C         137.7827  138.4890  166.6425 C.1     1  UNL1        0.1004
@<TRIPOS>BOND
     1    30    31    3
     2    31    24    1
     3    24    25   ar
     4    25    26   ar
     5    26    27   ar
     6    27    23    1
     7    23    18    1
     8    18    19   ar
     9    19    20   ar
    10    20    21   ar
    11    21    22   ar
    12    22    17    1
    13    17     1    1
    14     3     1    1
    15     3     4    1
    16     4     5    1
    17     5     6    1
    18     6     7   am
    19     7     8    2
    20     7    10    1
    21    10    11   ar
    22    11    12   ar
    23    12    13   ar
    24    13    14   ar
    25    14    15    1
    26    14    16   ar
    27     6     9    1
    28    27    28   ar
    29    28    29   ar
    30    29    24   ar
    31    22    18   ar
    32     9     3    1
    33    16    10   ar
    34     1     2    1
@<TRIPOS>MOLECULE
*****
 31 34 0 0 0
SMALL
GASTEIGER

@<TRIPOS>ATOM
      1 N         143.9703  141.6101  162.0118 N.3     1  UNL1       -0.2921
      2 H         143.4911  142.2895  161.4208 H       1  UNL1        0.1236
      3 C         143.2784  141.6297  163.3426 C.3     1  UNL1        0.0761
      4 C         143.9454  141.7403  164.6815 C.3     1  UNL1        0.0390
      5 C         142.8772  141.7210  165.7345 C.3     1  UNL1        0.0952
      6 N         141.5502  141.5985  165.0462 N.am    1  UNL1       -0.2747
      7 C         140.2103  141.5423  165.7183 C.2     1  UNL1        0.2491
      8 O         138.9628  141.4184  164.8947 O.2     1  UNL1       -0.2699
      9 C         141.7981  141.5420  163.5679 C.3     1  UNL1        0.1094
     10 C         140.1180  141.6100  167.2140 C.ar    1  UNL1        0.0544
     11 C         139.7876  140.3769  168.0015 C.ar    1  UNL1        0.0046
     12 C         139.6953  140.4446  169.4971 C.ar    1  UNL1        0.0010
     13 C         139.9334  141.7453  170.2051 C.ar    1  UNL1        0.0114
     14 C         140.2638  142.9784  169.4175 C.ar    1  UNL1        0.0578
     15 CL        140.5019  144.2792  170.1256 Cl      1  UNL1       -0.0822
     16 C         140.3561  142.9108  167.9219 C.ar    1  UNL1        0.0159
     17 C         144.0511  140.3343  161.2270 C.3     1  UNL1        0.1148
     18 N         142.0787  138.7843  160.3037 N.ar    1  UNL1       -0.3070
     19 C         141.1506  138.8375  159.1265 C.ar    1  UNL1        0.1786
     20 N         141.4698  140.0743  158.3400 N.ar    1  UNL1       -0.2226
     21 C         142.5952  140.7856  159.0312 C.ar    1  UNL1        0.1147
     22 C         142.9715  139.9883  160.2448 C.ar    1  UNL1        0.0739
     23 C         142.1088  137.7150  161.3552 C.3     1  UNL1        0.1340
     24 C         139.2313  137.8762  164.8112 C.ar    1  UNL1        0.0684
     25 C         140.7091  137.8457  165.0665 C.ar    1  UNL1        0.0100
     26 C         141.6683  137.7920  163.9145 C.ar    1  UNL1       -0.0017
     27 C         141.1497  137.7687  162.5072 C.ar    1  UNL1        0.0005
     28 C         139.6719  137.7992  162.2519 C.ar    1  UNL1       -0.0017
     29 C         138.7127  137.8529  163.4040 C.ar    1  UNL1        0.0100
     30 N         137.3130  137.9836  167.1152 N.1     1  UNL1       -0.1908
     31 C         138.2722  137.9299  165.9632 C.1     1  UNL1        0.1004
@<TRIPOS>BOND
     1    30    31    3
     2    31    24    1
     3    24    25   ar
     4    25    26   ar
     5    26    27   ar
     6    27    23    1
     7    23    18    1
     8    18    19   ar
     9    19    20   ar
    10    20    21   ar
    11    21    22   ar
    12    22    17    1
    13    17     1    1
    14     3     1    1
    15     3     4    1
    16     4     5    1
    17     5     6    1
    18     6     7   am
    19     7     8    2
    20     7    10    1
    21    10    11   ar
    22    11    12   ar
    23    12    13   ar
    24    13    14   ar
    25    14    15    1
    26    14    16   ar
    27     6     9    1
    28    27    28   ar
    29    28    29   ar
    30    29    24   ar
    31    22    18   ar
    32     9     3    1
    33    16    10   ar
    34     1     2    1
@<TRIPOS>MOLECULE
*****
 31 34 0 0 0
SMALL
GASTEIGER

@<TRIPOS>ATOM
      1 N         144.6864  142.5039  163.0227 N.3     1  UNL1       -0.2921
      2 H         144.9724  143.4821  163.0643 H       1  UNL1        0.1236
      3 C         144.0397  142.1855  164.3381 C.3     1  UNL1        0.0761
      4 C         143.4786  143.1819  165.3088 C.3     1  UNL1        0.0390
      5 C         142.9327  142.4270  166.4845 C.3     1  UNL1        0.0952
      6 N         143.1565  140.9640  166.2402 N.am    1  UNL1       -0.2747
      7 C         142.7648  139.8465  167.1609 C.2     1  UNL1        0.2491
      8 O         143.0549  138.4248  166.7806 O.2     1  UNL1       -0.2699
      9 C         143.8406  140.8148  164.9137 C.3     1  UNL1        0.1094
     10 C         142.0830  140.1506  168.4620 C.ar    1  UNL1        0.0544
     11 C         142.8897  140.5979  169.6448 C.ar    1  UNL1        0.0046
     12 C         142.2080  140.9020  170.9458 C.ar    1  UNL1        0.0010
     13 C         140.7195  140.7588  171.0641 C.ar    1  UNL1        0.0114
     14 C         139.9128  140.3115  169.8812 C.ar    1  UNL1        0.0578
     15 CL        138.4244  140.1682  169.9994 Cl      1  UNL1       -0.0822
     16 C         140.5945  140.0073  168.5802 C.ar    1  UNL1        0.0159
     17 C         143.9161  142.3320  161.7470 C.3     1  UNL1        0.1148
     18 N         141.2794  141.9172  161.8911 N.ar    1  UNL1       -0.3070
     19 C         140.0599  142.7723  161.7131 C.ar    1  UNL1        0.1786
     20 N         140.5133  144.1628  161.3800 N.ar    1  UNL1       -0.2226
     21 C         142.0131  144.1671  161.3522 C.ar    1  UNL1        0.1147
     22 C         142.4866  142.7793  161.6680 C.ar    1  UNL1        0.0739
     23 C         141.2900  140.4566  162.2323 C.3     1  UNL1        0.1340
     24 C         138.6578  138.8978  165.5326 C.ar    1  UNL1        0.0684
     25 C         139.1114  140.3275  165.5469 C.ar    1  UNL1        0.0100
     26 C         139.9887  140.8471  164.4468 C.ar    1  UNL1       -0.0017
     27 C         140.4126  139.9370  163.3324 C.ar    1  UNL1        0.0005
     28 C         139.9591  138.5073  163.3180 C.ar    1  UNL1       -0.0017
     29 C         139.0817  137.9877  164.4181 C.ar    1  UNL1        0.0100
     30 N         136.9031  137.8586  167.7328 N.1     1  UNL1       -0.1908
     31 C         137.7805  138.3782  166.6327 C.1     1  UNL1        0.1004
@<TRIPOS>BOND
     1    30    31    3
     2    31    24    1
     3    24    25   ar
     4    25    26   ar
     5    26    27   ar
     6    27    23    1
     7    23    18    1
     8    18    19   ar
     9    19    20   ar
    10    20    21   ar
    11    21    22   ar
    12    22    17    1
    13    17     1    1
    14     3     1    1
    15     3     4    1
    16     4     5    1
    17     5     6    1
    18     6     7   am
    19     7     8    2
    20     7    10    1
    21    10    11   ar
    22    11    12   ar
    23    12    13   ar
    24    13    14   ar
    25    14    15    1
    26    14    16   ar
    27     6     9    1
    28    27    28   ar
    29    28    29   ar
    30    29    24   ar
    31    22    18   ar
    32     9     3    1
    33    16    10   ar
    34     1     2    1
@<TRIPOS>MOLECULE
*****
 31 34 0 0 0
SMALL
GASTEIGER

@<TRIPOS>ATOM
      1 N         140.0432  141.9232  160.9805 N.3     1  UNL1       -0.2921
      2 H         139.0776  142.0136  160.6645 H       1  UNL1        0.1236
      3 C         140.0051  141.8677  162.4789 C.3     1  UNL1        0.0761
      4 C         138.8487  142.2668  163.3469 C.3     1  UNL1        0.0390
      5 C         139.2457  142.0491  164.7770 C.3     1  UNL1        0.0952
      6 N         140.6474  141.5156  164.7928 N.am    1  UNL1       -0.2747
      7 C         141.4406  141.1571  166.0144 C.2     1  UNL1        0.2491
      8 O         142.8387  140.6322  165.8735 O.2     1  UNL1       -0.2699
      9 C         141.1168  141.4035  163.3725 C.3     1  UNL1        0.1094
     10 C         140.8357  141.3234  167.3769 C.ar    1  UNL1        0.0544
     11 C         140.1954  140.1523  168.0613 C.ar    1  UNL1        0.0046
     12 C         139.5905  140.3186  169.4238 C.ar    1  UNL1        0.0010
     13 C         139.6259  141.6560  170.1019 C.ar    1  UNL1        0.0114
     14 C         140.2661  142.8273  169.4175 C.ar    1  UNL1        0.0578
     15 CL        140.3015  144.1647  170.0956 Cl      1  UNL1       -0.0822
     16 C         140.8710  142.6610  168.0550 C.ar    1  UNL1        0.0159
     17 C         140.6490  140.7923  160.2031 C.3     1  UNL1        0.1148
     18 N         142.6256  139.1115  160.8458 N.ar    1  UNL1       -0.3070
     19 C         144.1218  139.2045  160.8990 C.ar    1  UNL1        0.1786
     20 N         144.5152  140.5905  160.4810 N.ar    1  UNL1       -0.2226
     21 C         143.2621  141.3539  160.1695 C.ar    1  UNL1        0.1147
     22 C         142.0943  140.4399  160.3949 C.ar    1  UNL1        0.0739
     23 C         141.8048  137.9024  161.1840 C.3     1  UNL1        0.1340
     24 C         139.1176  137.9449  164.7933 C.ar    1  UNL1        0.0684
     25 C         140.5933  137.7334  164.9594 C.ar    1  UNL1        0.0100
     26 C         141.4890  137.7193  163.7563 C.ar    1  UNL1       -0.0017
     27 C         140.9091  137.9166  162.3871 C.ar    1  UNL1        0.0005
     28 C         139.4334  138.1280  162.2210 C.ar    1  UNL1       -0.0017
     29 C         138.5376  138.1421  163.4241 C.ar    1  UNL1        0.0100
     30 N         137.3261  137.9731  167.1995 N.1     1  UNL1       -0.1908
     31 C         138.2218  137.9590  165.9964 C.1     1  UNL1        0.1004
@<TRIPOS>BOND
     1    30    31    3
     2    31    24    1
     3    24    25   ar
     4    25    26   ar
     5    26    27   ar
     6    27    23    1
     7    23    18    1
     8    18    19   ar
     9    19    20   ar
    10    20    21   ar
    11    21    22   ar
    12    22    17    1
    13    17     1    1
    14     3     1    1
    15     3     4    1
    16     4     5    1
    17     5     6    1
    18     6     7   am
    19     7     8    2
    20     7    10    1
    21    10    11   ar
    22    11    12   ar
    23    12    13   ar
    24    13    14   ar
    25    14    15    1
    26    14    16   ar
    27     6     9    1
    28    27    28   ar
    29    28    29   ar
    30    29    24   ar
    31    22    18   ar
    32     9     3    1
    33    16    10   ar
    34     1     2    1
@<TRIPOS>MOLECULE
*****
 31 34 0 0 0
SMALL
GASTEIGER

@<TRIPOS>ATOM
      1 N         144.4016  141.3255  162.5259 N.3     1  UNL1       -0.2921
      2 H         144.0663  142.0722  161.9173 H       1  UNL1        0.1236
      3 C         143.6418  141.4426  163.8140 C.3     1  UNL1        0.0761
      4 C         142.6880  142.5415  164.1782 C.3     1  UNL1        0.0390
      5 C         142.1592  142.2595  165.5532 C.3     1  UNL1        0.0952
      6 N         142.7862  140.9863  166.0388 N.am    1  UNL1       -0.2747
      7 C         142.5401  140.3327  167.3663 C.2     1  UNL1        0.2491
      8 O         143.2430  139.0542  167.7146 O.2     1  UNL1       -0.2699
      9 C         143.7025  140.4814  164.9639 C.3     1  UNL1        0.1094
     10 C         141.5909  140.9576  168.3455 C.ar    1  UNL1        0.0544
     11 C         141.8752  142.3223  168.8989 C.ar    1  UNL1        0.0046
     12 C         140.9261  142.9472  169.8781 C.ar    1  UNL1        0.0010
     13 C         139.6928  142.2073  170.3038 C.ar    1  UNL1        0.0114
     14 C         139.4085  140.8424  169.7503 C.ar    1  UNL1        0.0578
     15 CL        138.1752  140.1024  170.1760 Cl      1  UNL1       -0.0822
     16 C         140.3576  140.2175  168.7711 C.ar    1  UNL1        0.0159
     17 C         144.3368  140.0559  161.7296 C.3     1  UNL1        0.1148
     18 N         142.3702  138.8508  160.3785 N.ar    1  UNL1       -0.3070
     19 C         141.6338  139.1311  159.1022 C.ar    1  UNL1        0.1786
     20 N         142.1901  140.3937  158.5136 N.ar    1  UNL1       -0.2226
     21 C         143.2704  140.8939  159.4263 C.ar    1  UNL1        0.1147
     22 C         143.3817  139.9403  160.5788 C.ar    1  UNL1        0.0739
     23 C         142.1363  137.6858  161.2939 C.3     1  UNL1        0.1340
     24 C         139.2823  138.0779  164.7508 C.ar    1  UNL1        0.0684
     25 C         140.7565  137.9668  165.0043 C.ar    1  UNL1        0.0100
     26 C         141.7079  137.8361  163.8519 C.ar    1  UNL1       -0.0017
     27 C         141.1850  137.8165  162.4462 C.ar    1  UNL1        0.0005
     28 C         139.7108  137.9276  162.1928 C.ar    1  UNL1       -0.0017
     29 C         138.7594  138.0583  163.3451 C.ar    1  UNL1        0.0100
     30 N         137.3796  138.3393  167.0555 N.1     1  UNL1       -0.1908
     31 C         138.3310  138.2086  165.9032 C.1     1  UNL1        0.1004
@<TRIPOS>BOND
     1    30    31    3
     2    31    24    1
     3    24    25   ar
     4    25    26   ar
     5    26    27   ar
     6    27    23    1
     7    23    18    1
     8    18    19   ar
     9    19    20   ar
    10    20    21   ar
    11    21    22   ar
    12    22    17    1
    13    17     1    1
    14     3     1    1
    15     3     4    1
    16     4     5    1
    17     5     6    1
    18     6     7   am
    19     7     8    2
    20     7    10    1
    21    10    11   ar
    22    11    12   ar
    23    12    13   ar
    24    13    14   ar
    25    14    15    1
    26    14    16   ar
    27     6     9    1
    28    27    28   ar
    29    28    29   ar
    30    29    24   ar
    31    22    18   ar
    32     9     3    1
    33    16    10   ar
    34     1     2    1
@<TRIPOS>MOLECULE
*****
 31 34 0 0 0
SMALL
GASTEIGER

@<TRIPOS>ATOM
      1 N         138.7433  140.0468  160.7639 N.3     1  UNL1       -0.2921
      2 H         137.7976  139.6848  160.6414 H       1  UNL1        0.1236
      3 C         138.9226  140.3018  162.2312 C.3     1  UNL1        0.0761
      4 C         137.9313  139.9794  163.3097 C.3     1  UNL1        0.0390
      5 C         138.5207  140.4023  164.6226 C.3     1  UNL1        0.0952
      6 N         139.8763  140.9862  164.3554 N.am    1  UNL1       -0.2747
      7 C         140.8182  141.5357  165.3854 C.2     1  UNL1        0.2491
      8 O         142.1477  142.0896  164.9663 O.2     1  UNL1       -0.2699
      9 C         140.1247  140.9240  162.8774 C.3     1  UNL1        0.1094
     10 C         140.4307  141.5312  166.8345 C.ar    1  UNL1        0.0544
     11 C         139.8384  140.2975  167.4486 C.ar    1  UNL1        0.0046
     12 C         139.4508  140.2930  168.8976 C.ar    1  UNL1        0.0010
     13 C         139.6556  141.5222  169.7326 C.ar    1  UNL1        0.0114
     14 C         140.2479  142.7559  169.1185 C.ar    1  UNL1        0.0578
     15 CL        140.4526  143.9851  169.9534 Cl      1  UNL1       -0.0822
     16 C         140.6354  142.7604  167.6694 C.ar    1  UNL1        0.0159
     17 C         139.6642  139.1032  160.0486 C.3     1  UNL1        0.1148
     18 N         142.3336  138.9693  160.0846 N.ar    1  UNL1       -0.3070
     19 C         143.4428  139.7321  159.4230 C.ar    1  UNL1        0.1786
     20 N         142.8258  140.7944  158.5621 N.ar    1  UNL1       -0.2226
     21 C         141.3351  140.6881  158.6917 C.ar    1  UNL1        0.1147
     22 C         141.0309  139.5602  159.6326 C.ar    1  UNL1        0.0739
     23 C         142.4980  137.8179  161.0317 C.3     1  UNL1        0.1340
     24 C         142.8536  138.5748  165.4533 C.ar    1  UNL1        0.0684
     25 C         141.6740  137.8215  164.9138 C.ar    1  UNL1        0.0100
     26 C         141.5554  137.5692  163.4400 C.ar    1  UNL1       -0.0017
     27 C         142.6165  138.0702  162.5056 C.ar    1  UNL1        0.0005
     28 C         143.7961  138.8234  163.0451 C.ar    1  UNL1       -0.0017
     29 C         143.9147  139.0757  164.5190 C.ar    1  UNL1        0.0100
     30 N         143.0906  139.0793  168.4011 N.1     1  UNL1       -0.1908
     31 C         142.9721  138.8271  166.9272 C.1     1  UNL1        0.1004
@<TRIPOS>BOND
     1    30    31    3
     2    31    24    1
     3    24    25   ar
     4    25    26   ar
     5    26    27   ar
     6    27    23    1
     7    23    18    1
     8    18    19   ar
     9    19    20   ar
    10    20    21   ar
    11    21    22   ar
    12    22    17    1
    13    17     1    1
    14     3     1    1
    15     3     4    1
    16     4     5    1
    17     5     6    1
    18     6     7   am
    19     7     8    2
    20     7    10    1
    21    10    11   ar
    22    11    12   ar
    23    12    13   ar
    24    13    14   ar
    25    14    15    1
    26    14    16   ar
    27     6     9    1
    28    27    28   ar
    29    28    29   ar
    30    29    24   ar
    31    22    18   ar
    32     9     3    1
    33    16    10   ar
    34     1     2    1
@<TRIPOS>MOLECULE
*****
 31 34 0 0 0
SMALL
GASTEIGER

@<TRIPOS>ATOM
      1 N         138.9289  139.4455  167.8419 N.3     1  UNL1       -0.2921
      2 H         138.0681  139.9398  168.0766 H       1  UNL1        0.1236
      3 C         139.1649  139.6591  166.3761 C.3     1  UNL1        0.0761
      4 C         140.3668  139.2061  165.6013 C.3     1  UNL1        0.0390
      5 C         140.1852  139.6303  164.1741 C.3     1  UNL1        0.0952
      6 N         138.8710  140.3454  164.0668 N.am    1  UNL1       -0.2747
      7 C         138.2895  140.9386  162.8178 C.2     1  UNL1        0.2491
      8 O         136.9578  141.6275  162.8643 O.2     1  UNL1       -0.2699
      9 C         138.2404  140.3632  165.4277 C.3     1  UNL1        0.1094
     10 C         139.0396  140.8429  161.5223 C.ar    1  UNL1        0.0544
     11 C         138.7114  139.7540  160.5444 C.ar    1  UNL1        0.0046
     12 C         139.4615  139.6583  159.2489 C.ar    1  UNL1        0.0010
     13 C         140.5398  140.6515  158.9315 C.ar    1  UNL1        0.0114
     14 C         140.8680  141.7405  159.9095 C.ar    1  UNL1        0.0578
     15 CL        141.9462  142.7337  159.5920 Cl      1  UNL1       -0.0822
     16 C         140.1179  141.8362  161.2049 C.ar    1  UNL1        0.0159
     17 C         139.9625  139.8784  168.8390 C.3     1  UNL1        0.1148
     18 N         140.7254  142.4157  168.4849 N.ar    1  UNL1       -0.3070
     19 C         140.5698  143.6885  169.2632 C.ar    1  UNL1        0.1786
     20 N         139.7980  143.3773  170.5113 N.ar    1  UNL1       -0.2226
     21 C         139.4765  141.9121  170.5042 C.ar    1  UNL1        0.1147
     22 C         140.0497  141.3178  169.2519 C.ar    1  UNL1        0.0739
     23 C         141.4324  142.2668  167.1704 C.3     1  UNL1        0.1340
     24 C         140.1272  144.7102  163.6241 C.ar    1  UNL1        0.0684
     25 C         139.1624  144.4302  164.7380 C.ar    1  UNL1        0.0100
     26 C         139.5975  143.6158  165.9201 C.ar    1  UNL1       -0.0017
     27 C         140.9974  143.0813  165.9883 C.ar    1  UNL1        0.0005
     28 C         141.9621  143.3612  164.8744 C.ar    1  UNL1       -0.0017
     29 C         141.5271  144.1757  163.6923 C.ar    1  UNL1        0.0100
     30 N         139.2571  146.3390  161.2598 N.1     1  UNL1       -0.1908
     31 C         139.6922  145.5246  162.4420 C.1     1  UNL1        0.1004
@<TRIPOS>BOND
     1    30    31    3
     2    31    24    1
     3    24    25   ar
     4    25    26   ar
     5    26    27   ar
     6    27    23    1
     7    23    18    1
     8    18    19   ar
     9    19    20   ar
    10    20    21   ar
    11    21    22   ar
    12    22    17    1
    13    17     1    1
    14     3     1    1
    15     3     4    1
    16     4     5    1
    17     5     6    1
    18     6     7   am
    19     7     8    2
    20     7    10    1
    21    10    11   ar
    22    11    12   ar
    23    12    13   ar
    24    13    14   ar
    25    14    15    1
    26    14    16   ar
    27     6     9    1
    28    27    28   ar
    29    28    29   ar
    30    29    24   ar
    31    22    18   ar
    32     9     3    1
    33    16    10   ar
    34     1     2    1
