@<TRIPOS>MOLECULE
*****
 25 26 0 0 0
SMALL
GASTEIGER

@<TRIPOS>ATOM
      1 C         141.5410  140.0702  165.9351 C.ar    1  UNL1        0.0520
      2 C         142.4124  139.0993  165.1948 C.ar    1  UNL1        0.0853
      3 C         143.3884  138.2434  165.9463 C.ar    1  UNL1        0.1045
      4 N         143.4930  138.3584  167.4382 N.ar    1  UNL1       -0.2436
      5 C         142.6216  139.3293  168.1786 C.ar    1  UNL1        0.0825
      6 C         142.7263  139.4442  169.6705 C.ar    1  UNL1        0.0198
      7 C         141.8549  140.4151  170.4108 C.ar    1  UNL1        0.0118
      8 C         140.8789  141.2710  169.6593 C.ar    1  UNL1        0.0686
      9 C         140.7743  141.1560  168.1674 C.ar    1  UNL1        0.0130
     10 C         141.6456  140.1852  167.4271 C.ar    1  UNL1        0.0316
     11 C         142.3078  138.9843  163.7028 C.2     1  UNL1        0.2455
     12 N         142.3134  137.6326  163.0526 N.am    1  UNL1       -0.3252
     13 O         142.1975  140.2210  162.8611 O.2     1  UNL1       -0.2703
     14 H         142.3858  136.8209  163.6050 H       1  UNL1        0.1453
     15 H         142.2447  137.5571  162.0734 H       1  UNL1        0.1453
     16 N         140.5650  140.9261  165.1835 N.pl3   1  UNL1       -0.3325
     17 H         140.8109  141.8444  164.9275 H       1  UNL1        0.1468
     18 C         139.2144  140.3828  164.8219 C.3     1  UNL1        0.0870
     19 C         138.7503  139.0797  165.4020 C.3     1  UNL1        0.0195
     20 C         137.3375  137.8094  167.1741 C.3     1  UNL1        0.0001
     21 C         138.0329  139.0581  166.7192 C.3     1  UNL1        0.0017
     22 C         139.0037  137.7980  164.6649 C.3     1  UNL1        0.0017
     23 C         138.7504  137.7193  163.1885 C.3     1  UNL1        0.0001
     24 C         140.0075  142.2419  170.3997 C.1     1  UNL1        0.1004
     25 N         139.1362  143.2127  171.1400 N.1     1  UNL1       -0.1908
@<TRIPOS>BOND
     1    20    21    1
     2    21    19    1
     3    19    22    1
     4    22    23    1
     5    19    18    1
     6    18    16    1
     7    16     1    1
     8     1     2   ar
     9     2    11    1
    10    11    12   am
    11    11    13    2
    12     2     3   ar
    13     3     4   ar
    14     4     5   ar
    15     5     6   ar
    16     6     7   ar
    17     7     8   ar
    18     8    24    1
    19    24    25    3
    20     8     9   ar
    21     9    10   ar
    22    10     1   ar
    23    10     5   ar
    24    16    17    1
    25    12    14    1
    26    12    15    1
@<TRIPOS>MOLECULE
*****
 25 26 0 0 0
SMALL
GASTEIGER

@<TRIPOS>ATOM
      1 C         140.1084  140.6607  166.0399 C.ar    1  UNL1        0.0520
      2 C         138.8534  139.9164  165.6922 C.ar    1  UNL1        0.0853
      3 C         138.0672  139.2279  166.7682 C.ar    1  UNL1        0.1045
      4 N         138.5359  139.2837  168.1919 N.ar    1  UNL1       -0.2436
      5 C         139.7909  140.0280  168.5398 C.ar    1  UNL1        0.0825
      6 C         140.2597  140.0839  169.9635 C.ar    1  UNL1        0.0198
      7 C         141.5147  140.8282  170.3113 C.ar    1  UNL1        0.0118
      8 C         142.3009  141.5166  169.2353 C.ar    1  UNL1        0.0686
      9 C         141.8322  141.4608  167.8115 C.ar    1  UNL1        0.0130
     10 C         140.5772  140.7165  167.4637 C.ar    1  UNL1        0.0316
     11 C         138.3847  139.8605  164.2683 C.2     1  UNL1        0.2455
     12 N         137.4836  140.9334  163.7328 N.am    1  UNL1       -0.3252
     13 O         138.8170  138.7317  163.3801 O.2     1  UNL1       -0.2703
     14 H         137.1998  141.6743  164.3158 H       1  UNL1        0.1453
     15 H         137.1759  140.8968  162.7983 H       1  UNL1        0.1453
     16 N         140.8947  141.3491  164.9639 N.pl3   1  UNL1       -0.3325
     17 H         140.7792  142.3148  164.8111 H       1  UNL1        0.1468
     18 C         141.8570  140.5662  164.1206 C.3     1  UNL1        0.0870
     19 C         143.2505  140.3110  164.6137 C.3     1  UNL1        0.0195
     20 C         143.4550  138.4677  166.4331 C.3     1  UNL1        0.0001
     21 C         143.6606  138.9266  165.0199 C.3     1  UNL1        0.0017
     22 C         144.2339  141.4404  164.7005 C.3     1  UNL1        0.0017
     23 C         145.5174  141.3785  163.9266 C.3     1  UNL1        0.0001
     24 C         143.5560  142.2610  169.5831 C.1     1  UNL1        0.1004
     25 N         144.8110  143.0052  169.9309 N.1     1  UNL1       -0.1908
@<TRIPOS>BOND
     1    20    21    1
     2    21    19    1
     3    19    22    1
     4    22    23    1
     5    19    18    1
     6    18    16    1
     7    16     1    1
     8     1     2   ar
     9     2    11    1
    10    11    12   am
    11    11    13    2
    12     2     3   ar
    13     3     4   ar
    14     4     5   ar
    15     5     6   ar
    16     6     7   ar
    17     7     8   ar
    18     8    24    1
    19    24    25    3
    20     8     9   ar
    21     9    10   ar
    22    10     1   ar
    23    10     5   ar
    24    16    17    1
    25    12    14    1
    26    12    15    1
@<TRIPOS>MOLECULE
*****
 25 26 0 0 0
SMALL
GASTEIGER

@<TRIPOS>ATOM
      1 C         142.7279  140.7737  165.9029 C.ar    1  UNL1        0.0520
      2 C         143.3719  139.5125  165.4085 C.ar    1  UNL1        0.0853
      3 C         143.6451  138.3865  166.3611 C.ar    1  UNL1        0.1045
      4 N         143.2743  138.5218  167.8082 N.ar    1  UNL1       -0.2436
      5 C         142.6302  139.7831  168.3027 C.ar    1  UNL1        0.0825
      6 C         142.2594  139.9184  169.7498 C.ar    1  UNL1        0.0198
      7 C         141.6154  141.1796  170.2442 C.ar    1  UNL1        0.0118
      8 C         141.3422  142.3056  169.2915 C.ar    1  UNL1        0.0686
      9 C         141.7131  142.1703  167.8444 C.ar    1  UNL1        0.0130
     10 C         142.3571  140.9090  167.3500 C.ar    1  UNL1        0.0316
     11 C         143.7428  139.3771  163.9613 C.2     1  UNL1        0.2455
     12 N         145.1232  139.7442  163.5033 N.am    1  UNL1       -0.3252
     13 O         142.7333  138.8747  162.9722 O.2     1  UNL1       -0.2703
     14 H         145.7858  140.0739  164.1525 H       1  UNL1        0.1453
     15 H         145.3666  139.6553  162.5535 H       1  UNL1        0.1453
     16 N         142.4547  141.8996  164.9502 N.pl3   1  UNL1       -0.3325
     17 H         143.1138  142.6227  164.8407 H       1  UNL1        0.1468
     18 C         141.1773  141.9239  164.1642 C.3     1  UNL1        0.0870
     19 C         139.9566  142.5810  164.7371 C.3     1  UNL1        0.0195
     20 C         138.6475  144.7441  165.3345 C.3     1  UNL1        0.0001
     21 C         139.9201  144.0699  164.9150 C.3     1  UNL1        0.0017
     22 C         138.7725  141.7491  165.1320 C.3     1  UNL1        0.0017
     23 C         138.9779  140.4161  165.7884 C.3     1  UNL1        0.0001
     24 C         140.6982  143.5669  169.7860 C.1     1  UNL1        0.1004
     25 N         140.0542  144.8281  170.2805 N.1     1  UNL1       -0.1908
@<TRIPOS>BOND
     1    20    21    1
     2    21    19    1
     3    19    22    1
     4    22    23    1
     5    19    18    1
     6    18    16    1
     7    16     1    1
     8     1     2   ar
     9     2    11    1
    10    11    12   am
    11    11    13    2
    12     2     3   ar
    13     3     4   ar
    14     4     5   ar
    15     5     6   ar
    16     6     7   ar
    17     7     8   ar
    18     8    24    1
    19    24    25    3
    20     8     9   ar
    21     9    10   ar
    22    10     1   ar
    23    10     5   ar
    24    16    17    1
    25    12    14    1
    26    12    15    1
@<TRIPOS>MOLECULE
*****
 25 26 0 0 0
SMALL
GASTEIGER

@<TRIPOS>ATOM
      1 C         140.0954  140.1789  165.9003 C.ar    1  UNL1        0.0520
      2 C         139.1586  139.1769  165.2934 C.ar    1  UNL1        0.0853
      3 C         138.1317  138.4961  166.1490 C.ar    1  UNL1        0.1045
      4 N         138.0416  138.8173  167.6114 N.ar    1  UNL1       -0.2436
      5 C         138.9784  139.8194  168.2183 C.ar    1  UNL1        0.0825
      6 C         138.8882  140.1407  169.6807 C.ar    1  UNL1        0.0198
      7 C         139.8250  141.1427  170.2875 C.ar    1  UNL1        0.0118
      8 C         140.8519  141.8236  169.4320 C.ar    1  UNL1        0.0686
      9 C         140.9420  141.5023  167.9696 C.ar    1  UNL1        0.0130
     10 C         140.0053  140.5002  167.3627 C.ar    1  UNL1        0.0316
     11 C         139.2487  138.8556  163.8310 C.2     1  UNL1        0.2455
     12 N         138.0640  139.0813  162.9391 N.am    1  UNL1       -0.3252
     13 O         140.5235  138.3086  163.2604 O.2     1  UNL1       -0.2703
     14 H         137.2272  139.4403  163.3136 H       1  UNL1        0.1453
     15 H         138.1231  138.8705  161.9793 H       1  UNL1        0.1453
     16 N         141.1223  140.8598  165.0447 N.pl3   1  UNL1       -0.3325
     17 H         142.0487  140.5269  165.0288 H       1  UNL1        0.1468
     18 C         140.7377  142.0477  164.2135 C.3     1  UNL1        0.0870
     19 C         139.5112  142.8393  164.5588 C.3     1  UNL1        0.0195
     20 C         138.5077  144.9829  165.6300 C.3     1  UNL1        0.0001
     21 C         139.5938  143.9505  165.5629 C.3     1  UNL1        0.0017
     22 C         138.2021  142.5195  163.8999 C.3     1  UNL1        0.0017
     23 C         137.9238  143.0067  162.5088 C.3     1  UNL1        0.0001
     24 C         141.7887  142.8257  170.0389 C.1     1  UNL1        0.1004
     25 N         142.7254  143.8278  170.6457 N.1     1  UNL1       -0.1908
@<TRIPOS>BOND
     1    20    21    1
     2    21    19    1
     3    19    22    1
     4    22    23    1
     5    19    18    1
     6    18    16    1
     7    16     1    1
     8     1     2   ar
     9     2    11    1
    10    11    12   am
    11    11    13    2
    12     2     3   ar
    13     3     4   ar
    14     4     5   ar
    15     5     6   ar
    16     6     7   ar
    17     7     8   ar
    18     8    24    1
    19    24    25    3
    20     8     9   ar
    21     9    10   ar
    22    10     1   ar
    23    10     5   ar
    24    16    17    1
    25    12    14    1
    26    12    15    1
@<TRIPOS>MOLECULE
*****
 25 26 0 0 0
SMALL
GASTEIGER

@<TRIPOS>ATOM
      1 C         141.2169  140.4354  168.3065 C.ar    1  UNL1        0.0520
      2 C         140.6975  140.7736  169.6724 C.ar    1  UNL1        0.0853
      3 C         139.2886  140.4211  170.0476 C.ar    1  UNL1        0.1045
      4 N         138.3991  139.7304  169.0568 N.ar    1  UNL1       -0.2436
      5 C         138.9185  139.3921  167.6908 C.ar    1  UNL1        0.0825
      6 C         138.0291  138.7013  166.7001 C.ar    1  UNL1        0.0198
      7 C         138.5485  138.3631  165.3342 C.ar    1  UNL1        0.0118
      8 C         139.9574  138.7156  164.9590 C.ar    1  UNL1        0.0686
      9 C         140.8469  139.4064  165.9498 C.ar    1  UNL1        0.0130
     10 C         140.3274  139.7446  167.3157 C.ar    1  UNL1        0.0316
     11 C         141.5870  141.4644  170.6633 C.2     1  UNL1        0.2455
     12 N         142.4750  140.6579  171.5638 N.am    1  UNL1       -0.3252
     13 O         141.5885  142.9617  170.7535 O.2     1  UNL1       -0.2703
     14 H         142.4741  139.6752  171.5045 H       1  UNL1        0.1453
     15 H         143.0588  141.1113  172.2141 H       1  UNL1        0.1453
     16 N         142.6258  140.7879  167.9314 N.pl3   1  UNL1       -0.3325
     17 H         143.3501  140.1357  168.0704 H       1  UNL1        0.1468
     18 C         142.9312  142.1342  167.3444 C.3     1  UNL1        0.0870
     19 C         142.8937  142.3301  165.8577 C.3     1  UNL1        0.0195
     20 C         144.1315  140.4503  164.5601 C.3     1  UNL1        0.0001
     21 C         144.0473  141.8780  165.0123 C.3     1  UNL1        0.0017
     22 C         141.7026  142.9783  165.2165 C.3     1  UNL1        0.0017
     23 C         140.4293  143.1416  165.9924 C.3     1  UNL1        0.0001
     24 C         140.4768  138.3773  163.5930 C.1     1  UNL1        0.1004
     25 N         140.9961  138.0391  162.2271 N.1     1  UNL1       -0.1908
@<TRIPOS>BOND
     1    20    21    1
     2    21    19    1
     3    19    22    1
     4    22    23    1
     5    19    18    1
     6    18    16    1
     7    16     1    1
     8     1     2   ar
     9     2    11    1
    10    11    12   am
    11    11    13    2
    12     2     3   ar
    13     3     4   ar
    14     4     5   ar
    15     5     6   ar
    16     6     7   ar
    17     7     8   ar
    18     8    24    1
    19    24    25    3
    20     8     9   ar
    21     9    10   ar
    22    10     1   ar
    23    10     5   ar
    24    16    17    1
    25    12    14    1
    26    12    15    1
@<TRIPOS>MOLECULE
*****
 25 26 0 0 0
SMALL
GASTEIGER

@<TRIPOS>ATOM
      1 C         140.6028  139.6840  166.1658 C.ar    1  UNL1        0.0520
      2 C         139.5923  138.7598  165.5537 C.ar    1  UNL1        0.0853
      3 C         138.3507  138.3971  166.3133 C.ar    1  UNL1        0.1045
      4 N         138.1197  138.9585  167.6849 N.ar    1  UNL1       -0.2436
      5 C         139.1302  139.8828  168.2970 C.ar    1  UNL1        0.0825
      6 C         138.8992  140.4443  169.6686 C.ar    1  UNL1        0.0198
      7 C         139.9097  141.3685  170.2806 C.ar    1  UNL1        0.0118
      8 C         141.1513  141.7312  169.5210 C.ar    1  UNL1        0.0686
      9 C         141.3823  141.1697  168.1495 C.ar    1  UNL1        0.0130
     10 C         140.3718  140.2455  167.5374 C.ar    1  UNL1        0.0316
     11 C         139.8233  138.1982  164.1821 C.2     1  UNL1        0.2455
     12 N         138.7487  138.2975  163.1403 N.am    1  UNL1       -0.3252
     13 O         141.1289  137.5375  163.8522 O.2     1  UNL1       -0.2703
     14 H         137.8918  138.7312  163.3567 H       1  UNL1        0.1453
     15 H         138.9003  137.9290  162.2400 H       1  UNL1        0.1453
     16 N         141.8444  140.0467  165.4062 N.pl3   1  UNL1       -0.3325
     17 H         142.6755  139.5389  165.5501 H       1  UNL1        0.1468
     18 C         141.8197  141.1831  164.4273 C.3     1  UNL1        0.0870
     19 C         142.1050  142.5802  164.8928 C.3     1  UNL1        0.0195
     20 C         139.7997  143.4558  165.7106 C.3     1  UNL1        0.0001
     21 C         141.0228  143.6182  164.8576 C.3     1  UNL1        0.0017
     22 C         143.4727  142.9393  165.3936 C.3     1  UNL1        0.0017
     23 C         144.6852  142.5771  164.5882 C.3     1  UNL1        0.0001
     24 C         142.1619  142.6554  170.1332 C.1     1  UNL1        0.1004
     25 N         143.1724  143.5796  170.7453 N.1     1  UNL1       -0.1908
@<TRIPOS>BOND
     1    20    21    1
     2    21    19    1
     3    19    22    1
     4    22    23    1
     5    19    18    1
     6    18    16    1
     7    16     1    1
     8     1     2   ar
     9     2    11    1
    10    11    12   am
    11    11    13    2
    12     2     3   ar
    13     3     4   ar
    14     4     5   ar
    15     5     6   ar
    16     6     7   ar
    17     7     8   ar
    18     8    24    1
    19    24    25    3
    20     8     9   ar
    21     9    10   ar
    22    10     1   ar
    23    10     5   ar
    24    16    17    1
    25    12    14    1
    26    12    15    1
@<TRIPOS>MOLECULE
*****
 25 26 0 0 0
SMALL
GASTEIGER

@<TRIPOS>ATOM
      1 C         141.9030  142.4829  164.1495 C.ar    1  UNL1        0.0520
      2 C         143.1632  143.2926  164.0705 C.ar    1  UNL1        0.0853
      3 C         144.0889  143.3563  165.2491 C.ar    1  UNL1        0.1045
      4 N         143.7543  142.6102  166.5067 N.ar    1  UNL1       -0.2436
      5 C         142.4941  141.8005  166.5857 C.ar    1  UNL1        0.0825
      6 C         142.1596  141.0544  167.8432 C.ar    1  UNL1        0.0198
      7 C         140.8994  140.2448  167.9222 C.ar    1  UNL1        0.0118
      8 C         139.9737  140.1811  166.7436 C.ar    1  UNL1        0.0686
      9 C         140.3082  140.9272  165.4860 C.ar    1  UNL1        0.0130
     10 C         141.5684  141.7368  165.4071 C.ar    1  UNL1        0.0316
     11 C         143.4978  144.0387  162.8129 C.2     1  UNL1        0.2455
     12 N         143.7774  145.5114  162.8665 N.am    1  UNL1       -0.3252
     13 O         143.5528  143.3121  161.5019 O.2     1  UNL1       -0.2703
     14 H         143.7413  145.9884  163.7270 H       1  UNL1        0.1453
     15 H         143.9969  146.0011  162.0411 H       1  UNL1        0.1453
     16 N         140.9773  142.4193  162.9709 N.pl3   1  UNL1       -0.3325
     17 H         141.0616  141.6875  162.3177 H       1  UNL1        0.1468
     18 C         139.9233  143.4707  162.7874 C.3     1  UNL1        0.0870
     19 C         138.5187  143.2127  163.2463 C.3     1  UNL1        0.0195
     20 C         137.5084  140.8213  163.1434 C.3     1  UNL1        0.0001
     21 C         137.6775  142.1869  162.5463 C.3     1  UNL1        0.0017
     22 C         137.9554  143.9804  164.4054 C.3     1  UNL1        0.0017
     23 C         138.8726  144.7321  165.3239 C.3     1  UNL1        0.0001
     24 C         138.7134  139.3714  166.8226 C.1     1  UNL1        0.1004
     25 N         137.4533  138.5617  166.9016 N.1     1  UNL1       -0.1908
@<TRIPOS>BOND
     1    20    21    1
     2    21    19    1
     3    19    22    1
     4    22    23    1
     5    19    18    1
     6    18    16    1
     7    16     1    1
     8     1     2   ar
     9     2    11    1
    10    11    12   am
    11    11    13    2
    12     2     3   ar
    13     3     4   ar
    14     4     5   ar
    15     5     6   ar
    16     6     7   ar
    17     7     8   ar
    18     8    24    1
    19    24    25    3
    20     8     9   ar
    21     9    10   ar
    22    10     1   ar
    23    10     5   ar
    24    16    17    1
    25    12    14    1
    26    12    15    1
@<TRIPOS>MOLECULE
*****
 25 26 0 0 0
SMALL
GASTEIGER

@<TRIPOS>ATOM
      1 C         140.1595  142.4495  164.5141 C.ar    1  UNL1        0.0520
      2 C         139.7858  143.6435  163.6866 C.ar    1  UNL1        0.0853
      3 C         140.8030  144.2803  162.7867 C.ar    1  UNL1        0.1045
      4 N         142.1938  143.7232  162.7143 N.ar    1  UNL1       -0.2436
      5 C         142.5675  142.5291  163.5418 C.ar    1  UNL1        0.0825
      6 C         143.9582  141.9720  163.4694 C.ar    1  UNL1        0.0198
      7 C         144.3319  140.7780  164.2969 C.ar    1  UNL1        0.0118
      8 C         143.3147  140.1412  165.1968 C.ar    1  UNL1        0.0686
      9 C         141.9239  140.6983  165.2692 C.ar    1  UNL1        0.0130
     10 C         141.5503  141.8923  164.4418 C.ar    1  UNL1        0.0316
     11 C         138.3950  144.2007  163.7590 C.2     1  UNL1        0.2455
     12 N         137.6109  144.4261  162.5003 N.am    1  UNL1       -0.3252
     13 O         137.7883  144.5324  165.0901 O.2     1  UNL1       -0.2703
     14 H         138.0092  144.2084  161.6266 H       1  UNL1        0.1453
     15 H         136.6981  144.7918  162.5478 H       1  UNL1        0.1453
     16 N         139.1423  141.8127  165.4140 N.pl3   1  UNL1       -0.3325
     17 H         139.0120  142.1535  166.3284 H       1  UNL1        0.1468
     18 C         138.3237  140.6565  164.9207 C.3     1  UNL1        0.0870
     19 C         138.4851  139.3025  165.5456 C.3     1  UNL1        0.0195
     20 C         140.2284  137.5541  164.7369 C.3     1  UNL1        0.0001
     21 C         138.8402  138.1205  164.6931 C.3     1  UNL1        0.0017
     22 C         138.2916  139.1305  167.0232 C.3     1  UNL1        0.0017
     23 C         139.2676  139.7426  167.9837 C.3     1  UNL1        0.0001
     24 C         143.6884  138.9472  166.0244 C.1     1  UNL1        0.1004
     25 N         144.0621  137.7532  166.8518 N.1     1  UNL1       -0.1908
@<TRIPOS>BOND
     1    20    21    1
     2    21    19    1
     3    19    22    1
     4    22    23    1
     5    19    18    1
     6    18    16    1
     7    16     1    1
     8     1     2   ar
     9     2    11    1
    10    11    12   am
    11    11    13    2
    12     2     3   ar
    13     3     4   ar
    14     4     5   ar
    15     5     6   ar
    16     6     7   ar
    17     7     8   ar
    18     8    24    1
    19    24    25    3
    20     8     9   ar
    21     9    10   ar
    22    10     1   ar
    23    10     5   ar
    24    16    17    1
    25    12    14    1
    26    12    15    1
@<TRIPOS>MOLECULE
*****
 25 26 0 0 0
SMALL
GASTEIGER

@<TRIPOS>ATOM
      1 C         142.6342  142.9215  164.9728 C.ar    1  UNL1        0.0520
      2 C         141.9600  143.7000  163.8822 C.ar    1  UNL1        0.0853
      3 C         140.4915  143.5236  163.6325 C.ar    1  UNL1        0.1045
      4 N         139.6971  142.5687  164.4734 N.ar    1  UNL1       -0.2436
      5 C         140.3713  141.7902  165.5640 C.ar    1  UNL1        0.0825
      6 C         139.5769  140.8353  166.4049 C.ar    1  UNL1        0.0198
      7 C         140.2511  140.0568  167.4955 C.ar    1  UNL1        0.0118
      8 C         141.7196  140.2332  167.7452 C.ar    1  UNL1        0.0686
      9 C         142.5139  141.1881  166.9043 C.ar    1  UNL1        0.0130
     10 C         141.8398  141.9666  165.8137 C.ar    1  UNL1        0.0316
     11 C         142.7544  144.6550  163.0413 C.2     1  UNL1        0.2455
     12 N         142.4372  144.8134  161.5838 N.am    1  UNL1       -0.3252
     13 O         143.8659  145.4515  163.6579 O.2     1  UNL1       -0.2703
     14 H         141.7077  144.2906  161.1791 H       1  UNL1        0.1453
     15 H         142.9585  145.4402  161.0319 H       1  UNL1        0.1453
     16 N         144.1027  143.0979  165.2225 N.pl3   1  UNL1       -0.3325
     17 H         144.4118  143.7084  165.9304 H       1  UNL1        0.1468
     18 C         145.1002  142.3442  164.3937 C.3     1  UNL1        0.0870
     19 C         144.6842  141.0992  163.6679 C.3     1  UNL1        0.0195
     20 C         143.4613  138.8829  164.2531 C.3     1  UNL1        0.0001
     21 C         144.6517  139.7851  164.3905 C.3     1  UNL1        0.0017
     22 C         144.3007  141.1682  162.2193 C.3     1  UNL1        0.0017
     23 C         144.8785  142.2379  161.3407 C.3     1  UNL1        0.0001
     24 C         142.3937  139.4546  168.8358 C.1     1  UNL1        0.1004
     25 N         143.0678  138.6760  169.9264 N.1     1  UNL1       -0.1908
@<TRIPOS>BOND
     1    20    21    1
     2    21    19    1
     3    19    22    1
     4    22    23    1
     5    19    18    1
     6    18    16    1
     7    16     1    1
     8     1     2   ar
     9     2    11    1
    10    11    12   am
    11    11    13    2
    12     2     3   ar
    13     3     4   ar
    14     4     5   ar
    15     5     6   ar
    16     6     7   ar
    17     7     8   ar
    18     8    24    1
    19    24    25    3
    20     8     9   ar
    21     9    10   ar
    22    10     1   ar
    23    10     5   ar
    24    16    17    1
    25    12    14    1
    26    12    15    1
