@<TRIPOS>MOLECULE
*****
 27 30 0 0 0
SMALL
GASTEIGER

@<TRIPOS>ATOM
      1 C         140.7686  142.0158  167.3195 C.3     1  UNL1        0.1702
      2 C         142.0958  141.3195  167.3792 C.3     1  UNL1        0.0596
      3 C         143.0330  141.5881  168.5191 C.3     1  UNL1        0.0614
      4 C         143.6180  142.1398  169.7854 C.3     1  UNL1        0.0175
      5 C         142.6265  143.0988  170.3746 C.3     1  UNL1        0.0175
      6 C         141.4287  143.1397  169.4726 C.3     1  UNL1        0.0614
      7 C         140.3785  142.9806  168.3999 C.3     1  UNL1        0.0596
      8 N         141.6800  142.2061  168.3258 N.3     1  UNL1       -0.2713
      9 O         139.8312  141.7473  166.1795 O.3     1  UNL1       -0.4639
     10 C         139.2784  138.2926  164.3063 C.ar    1  UNL1        0.0593
     11 C         138.4732  137.5429  165.3259 C.ar    1  UNL1        0.0254
     12 C         138.1207  138.1947  166.6301 C.ar    1  UNL1        0.1022
     13 N         138.5734  139.5961  166.9146 N.ar    1  UNL1       -0.2101
     14 C         139.3786  140.3458  165.8950 C.ar    1  UNL1        0.2249
     15 C         139.7311  139.6941  164.5908 C.ar    1  UNL1        0.0622
     16 N         138.6551  137.6661  161.8631 N.am    1  UNL1       -0.3253
     17 C         139.6309  137.6408  163.0021 C.2     1  UNL1        0.2429
     18 O         140.9592  136.9636  162.8369 O.2     1  UNL1       -0.2704
     19 H         138.8865  137.2382  161.0071 H       1  UNL1        0.1453
     20 H         137.7834  138.1105  161.9715 H       1  UNL1        0.1453
     21 C         140.7428  141.9375  167.1858 C.3     1  UNL1        0.0991
     22 C         140.5941  142.9444  166.0840 C.ar    1  UNL1       -0.0061
     23 C         141.7032  143.1418  165.0937 C.ar    1  UNL1       -0.0029
     24 C         141.5546  144.1487  163.9919 C.ar    1  UNL1       -0.0003
     25 C         140.2967  144.9582  163.8803 C.ar    1  UNL1       -0.0000
     26 C         139.1874  144.7608  164.8707 C.ar    1  UNL1       -0.0003
     27 C         139.3362  143.7538  165.9725 C.ar    1  UNL1       -0.0029
@<TRIPOS>BOND
     1    16    17   am
     2    17    18    2
     3    17    10    1
     4    10    11   ar
     5    11    12   ar
     6    12    13   ar
     7    13    14   ar
     8    14     9    1
     9     1     9    1
    10     1     2    1
    11     3     2    1
    12     3     4    1
    13     4     5    1
    14     6     5    1
    15     6     7    1
    16     6     8    1
    17     8    21    1
    18    21    22    1
    19    22    23   ar
    20    23    24   ar
    21    24    25   ar
    22    25    26   ar
    23    26    27   ar
    24    14    15   ar
    25    15    10   ar
    26     7     1    1
    27    27    22   ar
    28     8     3    1
    29    16    19    1
    30    16    20    1
@<TRIPOS>MOLECULE
*****
 27 30 0 0 0
SMALL
GASTEIGER

@<TRIPOS>ATOM
      1 C         139.3001  141.2282  165.3735 C.3     1  UNL1        0.1702
      2 C         140.1547  142.4250  165.6688 C.3     1  UNL1        0.0596
      3 C         139.7382  143.7820  165.1840 C.3     1  UNL1        0.0614
      4 C         138.9629  144.8877  164.5312 C.3     1  UNL1        0.0175
      5 C         137.7355  144.2892  163.9103 C.3     1  UNL1        0.0175
      6 C         137.7523  142.8137  164.1795 C.3     1  UNL1        0.0614
      7 C         138.0289  141.3884  164.5934 C.3     1  UNL1        0.0596
      8 N         138.9901  142.5002  164.9667 N.3     1  UNL1       -0.2713
      9 O         139.7165  139.8711  165.8583 O.3     1  UNL1       -0.4639
     10 C         140.8781  139.8462  169.6530 C.ar    1  UNL1        0.0593
     11 C         142.3268  139.4874  169.5036 C.ar    1  UNL1        0.0254
     12 C         142.9055  139.2565  168.1392 C.ar    1  UNL1        0.1022
     13 N         142.0354  139.3844  166.9241 N.ar    1  UNL1       -0.2101
     14 C         140.5866  139.7432  167.0734 C.ar    1  UNL1        0.2249
     15 C         140.0079  139.9741  168.4378 C.ar    1  UNL1        0.0622
     16 N         139.4395  139.0264  171.6551 N.am    1  UNL1       -0.3253
     17 C         140.2994  140.0771  171.0175 C.2     1  UNL1        0.2429
     18 O         140.5807  141.3588  171.7443 O.2     1  UNL1       -0.2704
     19 H         139.0597  139.1780  172.5507 H       1  UNL1        0.1453
     20 H         139.2549  138.1852  171.1781 H       1  UNL1        0.1453
     21 C         139.4066  141.1432  165.4515 C.3     1  UNL1        0.0991
     22 C         139.6205  140.0291  164.4700 C.ar    1  UNL1       -0.0061
     23 C         138.7014  138.8437  164.4690 C.ar    1  UNL1       -0.0029
     24 C         138.9152  137.7298  163.4876 C.ar    1  UNL1       -0.0003
     25 C         140.0482  137.8012  162.5071 C.ar    1  UNL1       -0.0000
     26 C         140.9674  138.9866  162.5081 C.ar    1  UNL1       -0.0003
     27 C         140.7534  140.1006  163.4896 C.ar    1  UNL1       -0.0029
@<TRIPOS>BOND
     1    16    17   am
     2    17    18    2
     3    17    10    1
     4    10    11   ar
     5    11    12   ar
     6    12    13   ar
     7    13    14   ar
     8    14     9    1
     9     1     9    1
    10     1     2    1
    11     3     2    1
    12     3     4    1
    13     4     5    1
    14     6     5    1
    15     6     7    1
    16     6     8    1
    17     8    21    1
    18    21    22    1
    19    22    23   ar
    20    23    24   ar
    21    24    25   ar
    22    25    26   ar
    23    26    27   ar
    24    14    15   ar
    25    15    10   ar
    26     7     1    1
    27    27    22   ar
    28     8     3    1
    29    16    19    1
    30    16    20    1
@<TRIPOS>MOLECULE
*****
 27 30 0 0 0
SMALL
GASTEIGER

@<TRIPOS>ATOM
      1 C         139.3410  141.2453  165.6881 C.3     1  UNL1        0.1702
      2 C         140.1218  142.5179  165.8321 C.3     1  UNL1        0.0596
      3 C         139.6962  143.7474  165.0859 C.3     1  UNL1        0.0614
      4 C         138.9369  144.6822  164.1916 C.3     1  UNL1        0.0175
      5 C         137.7895  143.9225  163.5944 C.3     1  UNL1        0.0175
      6 C         137.8397  142.5184  164.1196 C.3     1  UNL1        0.0614
      7 C         138.1345  141.2022  164.7978 C.3     1  UNL1        0.0596
      8 N         139.0181  142.4102  165.0414 N.3     1  UNL1       -0.2713
      9 O         139.7666  140.0156  166.4344 O.3     1  UNL1       -0.4639
     10 C         141.7229  140.4060  169.8652 C.ar    1  UNL1        0.0593
     11 C         140.6037  140.2406  170.8501 C.ar    1  UNL1        0.0254
     12 C         139.2055  140.0003  170.3631 C.ar    1  UNL1        0.1022
     13 N         138.9265  139.9253  168.8913 N.ar    1  UNL1       -0.2101
     14 C         140.0457  140.0906  167.9064 C.ar    1  UNL1        0.2249
     15 C         141.4438  140.3309  168.3933 C.ar    1  UNL1        0.0622
     16 N         143.7691  139.6668  171.2853 N.am    1  UNL1       -0.3253
     17 C         143.1211  140.6463  170.3522 C.2     1  UNL1        0.2429
     18 O         143.8714  141.8662  169.9062 O.2     1  UNL1       -0.2704
     19 H         144.6868  139.8245  171.6050 H       1  UNL1        0.1453
     20 H         143.2767  138.8661  171.5781 H       1  UNL1        0.1453
     21 C         139.4438  141.1806  165.7877 C.3     1  UNL1        0.0991
     22 C         139.8162  139.9377  165.0350 C.ar    1  UNL1       -0.0061
     23 C         141.1652  139.8283  164.3883 C.ar    1  UNL1       -0.0029
     24 C         141.5375  138.5855  163.6357 C.ar    1  UNL1       -0.0003
     25 C         140.5609  137.4519  163.5297 C.ar    1  UNL1       -0.0000
     26 C         139.2119  137.5612  164.1764 C.ar    1  UNL1       -0.0003
     27 C         138.8396  138.8042  164.9291 C.ar    1  UNL1       -0.0029
@<TRIPOS>BOND
     1    16    17   am
     2    17    18    2
     3    17    10    1
     4    10    11   ar
     5    11    12   ar
     6    12    13   ar
     7    13    14   ar
     8    14     9    1
     9     1     9    1
    10     1     2    1
    11     3     2    1
    12     3     4    1
    13     4     5    1
    14     6     5    1
    15     6     7    1
    16     6     8    1
    17     8    21    1
    18    21    22    1
    19    22    23   ar
    20    23    24   ar
    21    24    25   ar
    22    25    26   ar
    23    26    27   ar
    24    14    15   ar
    25    15    10   ar
    26     7     1    1
    27    27    22   ar
    28     8     3    1
    29    16    19    1
    30    16    20    1
@<TRIPOS>MOLECULE
*****
 27 30 0 0 0
SMALL
GASTEIGER

@<TRIPOS>ATOM
      1 C         141.8919  139.6959  165.4505 C.3     1  UNL1        0.1702
      2 C         141.8733  138.2336  165.1168 C.3     1  UNL1        0.0596
      3 C         140.7702  137.6718  164.2697 C.3     1  UNL1        0.0614
      4 C         139.5311  137.5588  163.4320 C.3     1  UNL1        0.0175
      5 C         138.9158  138.9229  163.3283 C.3     1  UNL1        0.0175
      6 C         139.7747  139.8789  164.1019 C.3     1  UNL1        0.0614
      7 C         140.8076  140.5963  164.9372 C.3     1  UNL1        0.0596
      8 N         140.9208  139.1056  164.6837 N.3     1  UNL1       -0.2713
      9 O         142.9950  140.2578  166.2977 O.3     1  UNL1       -0.4639
     10 C         142.4542  141.9606  169.8414 C.ar    1  UNL1        0.0593
     11 C         142.3979  140.7537  170.7302 C.ar    1  UNL1        0.0254
     12 C         142.5407  139.3814  170.1415 C.ar    1  UNL1        0.1022
     13 N         142.7397  139.2162  168.6641 N.ar    1  UNL1       -0.2101
     14 C         142.7960  140.4231  167.7752 C.ar    1  UNL1        0.2249
     15 C         142.6532  141.7954  168.3638 C.ar    1  UNL1        0.0622
     16 N         143.4433  143.9371  171.2072 N.am    1  UNL1       -0.3253
     17 C         142.3115  143.3329  170.4301 C.2     1  UNL1        0.2429
     18 O         141.0368  144.1010  170.2417 O.2     1  UNL1       -0.2704
     19 H         143.3496  144.8378  171.5935 H       1  UNL1        0.1453
     20 H         144.2799  143.4330  171.3308 H       1  UNL1        0.1453
     21 C         142.0239  139.6675  165.5308 C.3     1  UNL1        0.0991
     22 C         143.1087  140.4899  164.9009 C.ar    1  UNL1       -0.0061
     23 C         144.3998  139.8435  164.4945 C.ar    1  UNL1       -0.0029
     24 C         145.4845  140.6659  163.8646 C.ar    1  UNL1       -0.0003
     25 C         145.2782  142.1347  163.6410 C.ar    1  UNL1       -0.0000
     26 C         143.9870  142.7812  164.0474 C.ar    1  UNL1       -0.0003
     27 C         142.9023  141.9587  164.6773 C.ar    1  UNL1       -0.0029
@<TRIPOS>BOND
     1    16    17   am
     2    17    18    2
     3    17    10    1
     4    10    11   ar
     5    11    12   ar
     6    12    13   ar
     7    13    14   ar
     8    14     9    1
     9     1     9    1
    10     1     2    1
    11     3     2    1
    12     3     4    1
    13     4     5    1
    14     6     5    1
    15     6     7    1
    16     6     8    1
    17     8    21    1
    18    21    22    1
    19    22    23   ar
    20    23    24   ar
    21    24    25   ar
    22    25    26   ar
    23    26    27   ar
    24    14    15   ar
    25    15    10   ar
    26     7     1    1
    27    27    22   ar
    28     8     3    1
    29    16    19    1
    30    16    20    1
@<TRIPOS>MOLECULE
*****
 27 30 0 0 0
SMALL
GASTEIGER

@<TRIPOS>ATOM
      1 C         142.0879  141.9756  164.9739 C.3     1  UNL1        0.1702
      2 C         142.4734  140.5923  164.5406 C.3     1  UNL1        0.0596
      3 C         143.8617  140.3225  164.0409 C.3     1  UNL1        0.0614
      4 C         145.2922  140.5113  163.6310 C.3     1  UNL1        0.0175
      5 C         145.6486  141.9529  163.8427 C.3     1  UNL1        0.0175
      6 C         144.4383  142.6550  164.3835 C.3     1  UNL1        0.0614
      7 C         143.0907  143.0892  164.9074 C.3     1  UNL1        0.0596
      8 N         143.3340  141.6473  164.5059 N.3     1  UNL1       -0.2713
      9 O         140.6995  142.2454  165.4737 O.3     1  UNL1       -0.4639
     10 C         139.9988  142.1104  169.3776 C.ar    1  UNL1        0.0593
     11 C         139.4291  140.7297  169.5158 C.ar    1  UNL1        0.0254
     12 C         139.2830  139.8542  168.3065 C.ar    1  UNL1        0.1022
     13 N         139.7064  140.3595  166.9593 N.ar    1  UNL1       -0.2101
     14 C         140.2761  141.7402  166.8211 C.ar    1  UNL1        0.2249
     15 C         140.4223  142.6157  168.0302 C.ar    1  UNL1        0.0622
     16 N         140.0760  144.4776  170.4455 N.am    1  UNL1       -0.3253
     17 C         140.1450  142.9859  170.5868 C.2     1  UNL1        0.2429
     18 O         140.3601  142.3696  171.9374 O.2     1  UNL1       -0.2704
     19 H         140.1719  145.0522  171.2392 H       1  UNL1        0.1453
     20 H         139.9347  144.8821  169.5591 H       1  UNL1        0.1453
     21 C         141.9457  141.9171  165.0057 C.3     1  UNL1        0.0991
     22 C         140.9889  142.7137  164.1690 C.ar    1  UNL1       -0.0061
     23 C         140.7648  144.1671  164.4644 C.ar    1  UNL1       -0.0029
     24 C         139.8081  144.9636  163.6278 C.ar    1  UNL1       -0.0003
     25 C         139.0754  144.3068  162.4956 C.ar    1  UNL1       -0.0000
     26 C         139.2995  142.8533  162.2001 C.ar    1  UNL1       -0.0003
     27 C         140.2563  142.0568  163.0369 C.ar    1  UNL1       -0.0029
@<TRIPOS>BOND
     1    16    17   am
     2    17    18    2
     3    17    10    1
     4    10    11   ar
     5    11    12   ar
     6    12    13   ar
     7    13    14   ar
     8    14     9    1
     9     1     9    1
    10     1     2    1
    11     3     2    1
    12     3     4    1
    13     4     5    1
    14     6     5    1
    15     6     7    1
    16     6     8    1
    17     8    21    1
    18    21    22    1
    19    22    23   ar
    20    23    24   ar
    21    24    25   ar
    22    25    26   ar
    23    26    27   ar
    24    14    15   ar
    25    15    10   ar
    26     7     1    1
    27    27    22   ar
    28     8     3    1
    29    16    19    1
    30    16    20    1
@<TRIPOS>MOLECULE
*****
 27 30 0 0 0
SMALL
GASTEIGER

@<TRIPOS>ATOM
      1 C         141.6411  142.3210  165.8716 C.3     1  UNL1        0.1702
      2 C         140.5485  143.1877  165.3193 C.3     1  UNL1        0.0596
      3 C         140.8818  144.3026  164.3729 C.3     1  UNL1        0.0614
      4 C         141.6480  145.2528  163.5010 C.3     1  UNL1        0.0175
      5 C         143.1021  144.8957  163.5924 C.3     1  UNL1        0.0175
      6 C         143.2344  143.7249  164.5208 C.3     1  UNL1        0.0614
      7 C         143.0669  142.5693  165.4776 C.3     1  UNL1        0.0596
      8 N         141.8622  143.3584  165.0031 N.3     1  UNL1       -0.2713
      9 O         141.3078  141.2059  166.8181 O.3     1  UNL1       -0.4639
     10 C         139.5420  138.3414  164.7142 C.ar    1  UNL1        0.0593
     11 C         138.3731  138.0203  165.5976 C.ar    1  UNL1        0.0254
     12 C         138.1825  138.7611  166.8879 C.ar    1  UNL1        0.1022
     13 N         139.1606  139.8230  167.2947 N.ar    1  UNL1       -0.2101
     14 C         140.3295  140.1440  166.4113 C.ar    1  UNL1        0.2249
     15 C         140.5203  139.4033  165.1210 C.ar    1  UNL1        0.0622
     16 N         138.6361  137.5820  162.4006 N.am    1  UNL1       -0.3253
     17 C         139.7327  137.6006  163.4239 C.2     1  UNL1        0.2429
     18 O         141.0201  136.8784  163.1569 O.2     1  UNL1       -0.2704
     19 H         138.7613  137.0958  161.5537 H       1  UNL1        0.1453
     20 H         137.7912  138.0560  162.5758 H       1  UNL1        0.1453
     21 C         141.5289  142.2434  165.9495 C.3     1  UNL1        0.0991
     22 C         141.7618  142.4142  167.4215 C.ar    1  UNL1       -0.0061
     23 C         140.6806  142.9847  168.2907 C.ar    1  UNL1       -0.0029
     24 C         140.9135  143.1554  169.7625 C.ar    1  UNL1       -0.0003
     25 C         142.2276  142.7557  170.3653 C.ar    1  UNL1       -0.0000
     26 C         143.3089  142.1852  169.4961 C.ar    1  UNL1       -0.0003
     27 C         143.0759  142.0145  168.0241 C.ar    1  UNL1       -0.0029
@<TRIPOS>BOND
     1    16    17   am
     2    17    18    2
     3    17    10    1
     4    10    11   ar
     5    11    12   ar
     6    12    13   ar
     7    13    14   ar
     8    14     9    1
     9     1     9    1
    10     1     2    1
    11     3     2    1
    12     3     4    1
    13     4     5    1
    14     6     5    1
    15     6     7    1
    16     6     8    1
    17     8    21    1
    18    21    22    1
    19    22    23   ar
    20    23    24   ar
    21    24    25   ar
    22    25    26   ar
    23    26    27   ar
    24    14    15   ar
    25    15    10   ar
    26     7     1    1
    27    27    22   ar
    28     8     3    1
    29    16    19    1
    30    16    20    1
@<TRIPOS>MOLECULE
*****
 27 30 0 0 0
SMALL
GASTEIGER

@<TRIPOS>ATOM
      1 C         140.4596  141.6472  166.6125 C.3     1  UNL1        0.1702
      2 C         139.8624  140.3409  167.0449 C.3     1  UNL1        0.0596
      3 C         139.4808  140.1293  168.4801 C.3     1  UNL1        0.0614
      4 C         139.2630  140.3563  169.9467 C.3     1  UNL1        0.0175
      5 C         139.7323  141.7424  170.2759 C.3     1  UNL1        0.0175
      6 C         140.2403  142.3721  169.0127 C.3     1  UNL1        0.0614
      7 C         140.6753  142.7418  167.6152 C.3     1  UNL1        0.0596
      8 N         140.0848  141.3751  167.9028 N.3     1  UNL1       -0.2713
      9 O         140.8412  141.8589  165.1773 O.3     1  UNL1       -0.4639
     10 C         143.1818  139.3305  163.2078 C.ar    1  UNL1        0.0593
     11 C         144.5356  139.8968  163.5185 C.ar    1  UNL1        0.0254
     12 C         144.6579  141.1171  164.3822 C.ar    1  UNL1        0.1022
     13 N         143.4265  141.7711  164.9351 N.ar    1  UNL1       -0.2101
     14 C         142.0727  141.2048  164.6244 C.ar    1  UNL1        0.2249
     15 C         141.9503  139.9846  163.7607 C.ar    1  UNL1        0.0622
     16 N         141.8230  137.2637  162.4127 N.am    1  UNL1       -0.3253
     17 C         143.0595  138.1102  162.3442 C.2     1  UNL1        0.2429
     18 O         144.1736  137.7364  161.4119 O.2     1  UNL1       -0.2704
     19 H         141.7428  136.4628  161.8459 H       1  UNL1        0.1453
     20 H         141.0918  137.5090  163.0245 H       1  UNL1        0.1453
     21 C         140.4664  141.5867  166.4677 C.3     1  UNL1        0.0991
     22 C         139.5901  142.4117  165.5724 C.ar    1  UNL1       -0.0061
     23 C         139.8376  143.8843  165.4306 C.ar    1  UNL1       -0.0029
     24 C         138.9613  144.7093  164.5354 C.ar    1  UNL1       -0.0003
     25 C         137.8375  144.0617  163.7820 C.ar    1  UNL1       -0.0000
     26 C         137.5899  142.5890  163.9239 C.ar    1  UNL1       -0.0003
     27 C         138.4663  141.7641  164.8191 C.ar    1  UNL1       -0.0029
@<TRIPOS>BOND
     1    16    17   am
     2    17    18    2
     3    17    10    1
     4    10    11   ar
     5    11    12   ar
     6    12    13   ar
     7    13    14   ar
     8    14     9    1
     9     1     9    1
    10     1     2    1
    11     3     2    1
    12     3     4    1
    13     4     5    1
    14     6     5    1
    15     6     7    1
    16     6     8    1
    17     8    21    1
    18    21    22    1
    19    22    23   ar
    20    23    24   ar
    21    24    25   ar
    22    25    26   ar
    23    26    27   ar
    24    14    15   ar
    25    15    10   ar
    26     7     1    1
    27    27    22   ar
    28     8     3    1
    29    16    19    1
    30    16    20    1
@<TRIPOS>MOLECULE
*****
 27 30 0 0 0
SMALL
GASTEIGER

@<TRIPOS>ATOM
      1 C         142.2956  140.8390  166.6914 C.3     1  UNL1        0.1702
      2 C         142.2020  139.5447  167.4437 C.3     1  UNL1        0.0596
      3 C         142.4890  139.5103  168.9156 C.3     1  UNL1        0.0614
      4 C         142.8464  139.9332  170.3096 C.3     1  UNL1        0.0175
      5 C         143.1201  141.4079  170.2907 C.3     1  UNL1        0.0175
      6 C         142.9318  141.8964  168.8850 C.3     1  UNL1        0.0614
      7 C         142.6761  142.0990  167.4110 C.3     1  UNL1        0.0596
      8 N         142.5417  140.7236  168.0351 N.3     1  UNL1       -0.2713
      9 O         142.0087  140.8735  165.2194 O.3     1  UNL1       -0.4639
     10 C         138.6056  142.6128  164.1502 C.ar    1  UNL1        0.0593
     11 C         137.7861  141.4178  163.7624 C.ar    1  UNL1        0.0254
     12 C         138.3741  140.0413  163.8604 C.ar    1  UNL1        0.1022
     13 N         139.7816  139.8599  164.3460 N.ar    1  UNL1       -0.2101
     14 C         140.6011  141.0549  164.7337 C.ar    1  UNL1        0.2249
     15 C         140.0131  142.4313  164.6359 C.ar    1  UNL1        0.0622
     16 N         137.4531  144.4727  162.7493 N.am    1  UNL1       -0.3253
     17 C         138.0175  143.9892  164.0523 C.2     1  UNL1        0.2429
     18 O         137.9938  144.8822  165.2574 O.2     1  UNL1       -0.2704
     19 H         137.0671  145.3761  162.6851 H       1  UNL1        0.1453
     20 H         137.4686  143.8867  161.9584 H       1  UNL1        0.1453
     21 C         142.2548  140.7580  166.5632 C.3     1  UNL1        0.0991
     22 C         143.3754  140.9515  165.5850 C.ar    1  UNL1       -0.0061
     23 C         143.8556  142.3345  165.2585 C.ar    1  UNL1       -0.0029
     24 C         144.9760  142.5279  164.2803 C.ar    1  UNL1       -0.0003
     25 C         145.6164  141.3384  163.6285 C.ar    1  UNL1       -0.0000
     26 C         145.1362  139.9552  163.9550 C.ar    1  UNL1       -0.0003
     27 C         144.0157  139.7619  164.9332 C.ar    1  UNL1       -0.0029
@<TRIPOS>BOND
     1    16    17   am
     2    17    18    2
     3    17    10    1
     4    10    11   ar
     5    11    12   ar
     6    12    13   ar
     7    13    14   ar
     8    14     9    1
     9     1     9    1
    10     1     2    1
    11     3     2    1
    12     3     4    1
    13     4     5    1
    14     6     5    1
    15     6     7    1
    16     6     8    1
    17     8    21    1
    18    21    22    1
    19    22    23   ar
    20    23    24   ar
    21    24    25   ar
    22    25    26   ar
    23    26    27   ar
    24    14    15   ar
    25    15    10   ar
    26     7     1    1
    27    27    22   ar
    28     8     3    1
    29    16    19    1
    30    16    20    1
@<TRIPOS>MOLECULE
*****
 27 30 0 0 0
SMALL
GASTEIGER

@<TRIPOS>ATOM
      1 C         140.9778  140.8582  167.4256 C.3     1  UNL1        0.1702
      2 C         140.3584  141.5872  168.5810 C.3     1  UNL1        0.0596
      3 C         140.9047  141.4004  169.9654 C.3     1  UNL1        0.0614
      4 C         141.7427  140.9293  171.1168 C.3     1  UNL1        0.0175
      5 C         142.7733  139.9796  170.5820 C.3     1  UNL1        0.0175
      6 C         142.5723  139.8638  169.1000 C.3     1  UNL1        0.0614
      7 C         142.1435  139.9424  167.6546 C.3     1  UNL1        0.0596
      8 N         141.4174  140.7419  168.7189 N.3     1  UNL1       -0.2713
      9 O         140.4315  141.0450  166.0411 O.3     1  UNL1       -0.4639
     10 C         142.2594  143.8566  163.9190 C.ar    1  UNL1        0.0593
     11 C         141.1774  144.8915  163.8281 C.ar    1  UNL1        0.0254
     12 C         139.8468  144.6442  164.4748 C.ar    1  UNL1        0.1022
     13 N         139.5982  143.3621  165.2125 N.ar    1  UNL1       -0.2101
     14 C         140.6801  142.3272  165.3034 C.ar    1  UNL1        0.2249
     15 C         142.0107  142.5744  164.6567 C.ar    1  UNL1        0.0622
     16 N         143.9217  145.4647  162.7354 N.am    1  UNL1       -0.3253
     17 C         143.5900  144.1039  163.2722 C.2     1  UNL1        0.2429
     18 O         144.5890  142.9903  163.1623 O.2     1  UNL1       -0.2704
     19 H         144.7950  145.6270  162.3109 H       1  UNL1        0.1453
     20 H         143.2660  146.1956  162.8076 H       1  UNL1        0.1453
     21 C         140.8711  140.9287  167.3345 C.3     1  UNL1        0.0991
     22 C         140.1592  139.7995  166.6504 C.ar    1  UNL1       -0.0061
     23 C         138.7552  139.4491  167.0452 C.ar    1  UNL1       -0.0029
     24 C         138.0434  138.3199  166.3611 C.ar    1  UNL1       -0.0003
     25 C         138.7356  137.5410  165.2821 C.ar    1  UNL1       -0.0000
     26 C         140.1397  137.8914  164.8872 C.ar    1  UNL1       -0.0003
     27 C         140.8514  139.0207  165.5714 C.ar    1  UNL1       -0.0029
@<TRIPOS>BOND
     1    16    17   am
     2    17    18    2
     3    17    10    1
     4    10    11   ar
     5    11    12   ar
     6    12    13   ar
     7    13    14   ar
     8    14     9    1
     9     1     9    1
    10     1     2    1
    11     3     2    1
    12     3     4    1
    13     4     5    1
    14     6     5    1
    15     6     7    1
    16     6     8    1
    17     8    21    1
    18    21    22    1
    19    22    23   ar
    20    23    24   ar
    21    24    25   ar
    22    25    26   ar
    23    26    27   ar
    24    14    15   ar
    25    15    10   ar
    26     7     1    1
    27    27    22   ar
    28     8     3    1
    29    16    19    1
    30    16    20    1
