@<TRIPOS>MOLECULE
*****
 32 36 0 0 0
SMALL
GASTEIGER

@<TRIPOS>ATOM
      1 O         143.0992  138.9404  167.6235 O.2     1  UNL1       -0.2749
      2 C         142.0735  139.8902  167.0795 C.2     1  UNL1        0.2250
      3 N         142.4453  140.8525  165.9905 N.am    1  UNL1       -0.2750
      4 C         143.8427  140.8650  165.4455 C.3     1  UNL1        0.1000
      5 C         144.2144  141.8272  164.3565 C.3     1  UNL1        0.0670
      6 C         143.1887  142.7770  163.8126 C.ar    1  UNL1        0.0583
      7 N         143.5605  143.7392  162.7236 N.ar    1  UNL1       -0.2484
      8 C         142.5348  144.6890  162.1796 C.ar    1  UNL1        0.1023
      9 C         141.1373  144.6765  162.7246 C.ar    1  UNL1        0.0902
     10 C         140.7656  143.7143  163.8136 C.ar    1  UNL1        0.0040
     11 C         141.7913  142.7645  164.3576 C.ar    1  UNL1        0.0113
     12 C         141.4196  141.8022  165.4465 C.3     1  UNL1        0.1213
     13 C         140.6761  139.8777  167.6245 C.3     1  UNL1        0.0704
     14 C         141.5744  140.4767  168.6658 C.3     1  UNL1        0.0087
     15 C         140.7322  140.8344  169.8544 C.3     1  UNL1        0.0005
     16 C         139.3134  140.4565  169.5477 C.3     1  UNL1        0.0005
     17 C         139.2787  139.8653  168.1696 C.3     1  UNL1        0.0095
     18 C         138.3804  139.2664  167.1283 C.3     1  UNL1        0.0162
     19 C         139.2226  138.9087  165.9397 C.3     1  UNL1        0.0544
     20 C         140.6415  139.2865  166.2464 C.3     1  UNL1        0.0243
     21 N         138.7321  138.2829  164.6677 N.3     1  UNL1       -0.2995
     22 H         137.9372  137.6942  164.9166 H       1  UNL1        0.1232
     23 C         138.2880  139.1507  163.5276 C.3     1  UNL1        0.0590
     24 C         138.0394  140.6130  163.7507 C.3     1  UNL1        0.0478
     25 C         137.5953  141.4808  162.6106 C.3     1  UNL1        0.1435
     26 O         137.4000  140.8863  161.2474 O.3     1  UNL1       -0.3537
     27 C         137.6486  139.4239  161.0243 C.3     1  UNL1        0.1435
     28 C         138.0927  138.5561  162.1644 C.3     1  UNL1        0.0478
     29 C         140.1116  145.6263  162.1807 C.3     1  UNL1        0.4200
     30 F         139.0860  146.5760  161.6367 F       1  UNL1       -0.1658
     31 F         140.9160  145.7748  160.9233 F       1  UNL1       -0.1658
     32 F         139.3073  145.4777  163.4380 F       1  UNL1       -0.1658
@<TRIPOS>BOND
     1     1     2    2
     2     2     3   am
     3     3     4    1
     4     4     5    1
     5     5     6    1
     6     6     7   ar
     7     7     8   ar
     8     8     9   ar
     9     9    29    1
    10    29    30    1
    11    29    31    1
    12    29    32    1
    13     9    10   ar
    14    10    11   ar
    15    11    12    1
    16    13     2    1
    17    13    14    1
    18    14    15    1
    19    15    16    1
    20    17    16    1
    21    17    18    1
    22    18    19    1
    23    19    21    1
    24    21    23    1
    25    23    24    1
    26    24    25    1
    27    25    26    1
    28    26    27    1
    29    27    28    1
    30    19    20    1
    31    12     3    1
    32    17    13    1
    33    28    23    1
    34    11     6   ar
    35    20    13    1
    36    21    22    1
@<TRIPOS>MOLECULE
*****
 32 36 0 0 0
SMALL
GASTEIGER

@<TRIPOS>ATOM
      1 O         137.5642  140.3274  162.8698 O.2     1  UNL1       -0.2749
      2 C         138.4957  141.2157  163.6400 C.2     1  UNL1        0.2250
      3 N         138.8634  140.8715  165.0530 N.am    1  UNL1       -0.2750
      4 C         138.2997  139.6390  165.6957 C.3     1  UNL1        0.1000
      5 C         138.6674  139.2949  167.1085 C.3     1  UNL1        0.0670
      6 C         139.5989  140.1833  167.8787 C.ar    1  UNL1        0.0583
      7 N         139.9666  139.8391  169.2917 N.ar    1  UNL1       -0.2484
      8 C         140.8981  140.7274  170.0619 C.ar    1  UNL1        0.1023
      9 C         141.4618  141.9599  169.4191 C.ar    1  UNL1        0.0902
     10 C         141.0941  142.3041  168.0062 C.ar    1  UNL1        0.0040
     11 C         140.1626  141.4157  167.2360 C.ar    1  UNL1        0.0113
     12 C         139.7949  141.7599  165.8231 C.3     1  UNL1        0.1213
     13 C         139.0595  142.4482  162.9973 C.3     1  UNL1        0.0704
     14 C         137.7548  142.8159  163.6396 C.3     1  UNL1        0.0087
     15 C         137.5122  144.2756  163.3939 C.3     1  UNL1        0.0005
     16 C         138.6669  144.8101  162.5997 C.3     1  UNL1        0.0005
     17 C         139.6232  143.6808  162.3546 C.3     1  UNL1        0.0095
     18 C         140.9279  143.3132  161.7122 C.3     1  UNL1        0.0162
     19 C         141.1705  141.8534  161.9580 C.3     1  UNL1        0.0544
     20 C         140.0157  141.3189  162.7522 C.3     1  UNL1        0.0243
     21 N         142.3592  141.0664  161.4913 N.3     1  UNL1       -0.2995
     22 H         142.7062  141.5279  160.6505 H       1  UNL1        0.1232
     23 C         143.5378  140.8785  162.3999 C.3     1  UNL1        0.0590
     24 C         143.6644  139.6254  163.2146 C.3     1  UNL1        0.0478
     25 C         144.8431  139.4374  164.1232 C.3     1  UNL1        0.1435
     26 O         145.8951  140.5025  164.2170 O.3     1  UNL1       -0.3537
     27 C         145.7685  141.7556  163.4022 C.3     1  UNL1        0.1435
     28 C         144.5899  141.9436  162.4937 C.3     1  UNL1        0.0478
     29 C         142.3933  142.8483  170.1893 C.3     1  UNL1        0.4200
     30 F         143.3248  143.7366  170.9595 F       1  UNL1       -0.1658
     31 F         141.4273  143.9867  170.0445 F       1  UNL1       -0.1658
     32 F         143.3593  141.7099  170.3341 F       1  UNL1       -0.1658
@<TRIPOS>BOND
     1     1     2    2
     2     2     3   am
     3     3     4    1
     4     4     5    1
     5     5     6    1
     6     6     7   ar
     7     7     8   ar
     8     8     9   ar
     9     9    29    1
    10    29    30    1
    11    29    31    1
    12    29    32    1
    13     9    10   ar
    14    10    11   ar
    15    11    12    1
    16    13     2    1
    17    13    14    1
    18    14    15    1
    19    15    16    1
    20    17    16    1
    21    17    18    1
    22    18    19    1
    23    19    21    1
    24    21    23    1
    25    23    24    1
    26    24    25    1
    27    25    26    1
    28    26    27    1
    29    27    28    1
    30    19    20    1
    31    12     3    1
    32    17    13    1
    33    28    23    1
    34    11     6   ar
    35    20    13    1
    36    21    22    1
@<TRIPOS>MOLECULE
*****
 32 36 0 0 0
SMALL
GASTEIGER

@<TRIPOS>ATOM
      1 O         143.3868  138.6882  168.0238 O.2     1  UNL1       -0.2749
      2 C         142.5662  139.8885  167.6550 C.2     1  UNL1        0.2250
      3 N         142.7453  140.5361  166.3138 N.am    1  UNL1       -0.2750
      4 C         143.7449  139.9833  165.3416 C.3     1  UNL1        0.1000
      5 C         143.9239  140.6309  164.0005 C.3     1  UNL1        0.0670
      6 C         143.1034  141.8312  163.6316 C.ar    1  UNL1        0.0583
      7 N         143.2825  142.4787  162.2904 N.ar    1  UNL1       -0.2484
      8 C         142.4619  143.6790  161.9216 C.ar    1  UNL1        0.1023
      9 C         141.4623  144.2317  162.8939 C.ar    1  UNL1        0.0902
     10 C         141.2833  143.5842  164.2350 C.ar    1  UNL1        0.0040
     11 C         142.1038  142.3839  164.6039 C.ar    1  UNL1        0.0113
     12 C         141.9248  141.7363  165.9449 C.3     1  UNL1        0.1213
     13 C         141.5666  140.4412  168.6272 C.3     1  UNL1        0.0704
     14 C         142.9335  140.8656  169.0762 C.3     1  UNL1        0.0087
     15 C         142.7787  141.6807  170.3259 C.3     1  UNL1        0.0005
     16 C         141.3162  141.7600  170.6493 C.3     1  UNL1        0.0005
     17 C         140.5670  140.9940  169.5995 C.3     1  UNL1        0.0095
     18 C         139.2002  140.5696  169.1506 C.3     1  UNL1        0.0162
     19 C         139.3550  139.7546  167.9009 C.3     1  UNL1        0.0544
     20 C         140.8175  139.6752  167.5774 C.3     1  UNL1        0.0243
     21 N         138.2425  139.1287  167.1129 N.3     1  UNL1       -0.2995
     22 H         137.4011  139.6708  167.3098 H       1  UNL1        0.1232
     23 C         138.3488  139.0209  165.6206 C.3     1  UNL1        0.0590
     24 C         138.7535  137.7217  164.9895 C.3     1  UNL1        0.0478
     25 C         138.8598  137.6139  163.4972 C.3     1  UNL1        0.1435
     26 O         138.5615  138.8052  162.6360 O.3     1  UNL1       -0.3537
     27 C         138.1568  140.1044  163.2671 C.3     1  UNL1        0.1435
     28 C         138.0505  140.2123  164.7594 C.3     1  UNL1        0.0478
     29 C         140.6417  145.4320  162.5250 C.3     1  UNL1        0.4200
     30 F         139.8212  146.6322  162.1562 F       1  UNL1       -0.1658
     31 F         139.9873  145.3992  163.8743 F       1  UNL1       -0.1658
     32 F         141.2962  145.4647  161.1758 F       1  UNL1       -0.1658
@<TRIPOS>BOND
     1     1     2    2
     2     2     3   am
     3     3     4    1
     4     4     5    1
     5     5     6    1
     6     6     7   ar
     7     7     8   ar
     8     8     9   ar
     9     9    29    1
    10    29    30    1
    11    29    31    1
    12    29    32    1
    13     9    10   ar
    14    10    11   ar
    15    11    12    1
    16    13     2    1
    17    13    14    1
    18    14    15    1
    19    15    16    1
    20    17    16    1
    21    17    18    1
    22    18    19    1
    23    19    21    1
    24    21    23    1
    25    23    24    1
    26    24    25    1
    27    25    26    1
    28    26    27    1
    29    27    28    1
    30    19    20    1
    31    12     3    1
    32    17    13    1
    33    28    23    1
    34    11     6   ar
    35    20    13    1
    36    21    22    1
@<TRIPOS>MOLECULE
*****
 32 36 0 0 0
SMALL
GASTEIGER

@<TRIPOS>ATOM
      1 O         142.8468  138.2540  166.3212 O.2     1  UNL1       -0.2749
      2 C         141.8508  139.1455  165.6407 C.2     1  UNL1        0.2250
      3 N         142.2843  140.4721  165.0909 N.am    1  UNL1       -0.2750
      4 C         143.7139  140.9071  165.2215 C.3     1  UNL1        0.1000
      5 C         144.1474  142.2336  164.6716 C.3     1  UNL1        0.0670
      6 C         143.1514  143.1251  163.9912 C.ar    1  UNL1        0.0583
      7 N         143.5849  144.4517  163.4413 N.ar    1  UNL1       -0.2484
      8 C         142.5889  145.3433  162.7608 C.ar    1  UNL1        0.1023
      9 C         141.1593  144.9082  162.6302 C.ar    1  UNL1        0.0902
     10 C         140.7257  143.5817  163.1801 C.ar    1  UNL1        0.0040
     11 C         141.7218  142.6902  163.8605 C.ar    1  UNL1        0.0113
     12 C         141.2883  141.3636  164.4104 C.3     1  UNL1        0.1213
     13 C         140.4212  138.7105  165.5101 C.3     1  UNL1        0.0704
     14 C         141.1513  138.2811  164.2721 C.3     1  UNL1        0.0087
     15 C         140.1730  137.5808  163.3764 C.3     1  UNL1        0.0005
     16 C         138.8382  137.5773  164.0607 C.3     1  UNL1        0.0005
     17 C         138.9916  138.2755  165.3794 C.3     1  UNL1        0.0095
     18 C         138.2615  138.7049  166.6174 C.3     1  UNL1        0.0162
     19 C         139.2398  139.4053  167.5131 C.3     1  UNL1        0.0544
     20 C         140.5746  139.4087  166.8288 C.3     1  UNL1        0.0243
     21 N         138.9365  139.9981  168.8573 N.3     1  UNL1       -0.2995
     22 H         138.7802  139.2175  169.4949 H       1  UNL1        0.1232
     23 C         139.9315  140.9049  169.5188 C.3     1  UNL1        0.0590
     24 C         140.7262  140.4164  170.6935 C.3     1  UNL1        0.0478
     25 C         141.7213  141.3232  171.3551 C.3     1  UNL1        0.1435
     26 O         141.9216  142.7184  170.8420 O.3     1  UNL1       -0.3537
     27 C         141.1269  143.2068  169.6672 C.3     1  UNL1        0.1435
     28 C         140.1319  142.3001  169.0057 C.3     1  UNL1        0.0478
     29 C         140.1632  145.7998  161.9498 C.3     1  UNL1        0.4200
     30 F         139.1672  146.6913  161.2693 F       1  UNL1       -0.1658
     31 F         141.0244  145.8246  160.7218 F       1  UNL1       -0.1658
     32 F         139.3021  145.7749  163.1777 F       1  UNL1       -0.1658
@<TRIPOS>BOND
     1     1     2    2
     2     2     3   am
     3     3     4    1
     4     4     5    1
     5     5     6    1
     6     6     7   ar
     7     7     8   ar
     8     8     9   ar
     9     9    29    1
    10    29    30    1
    11    29    31    1
    12    29    32    1
    13     9    10   ar
    14    10    11   ar
    15    11    12    1
    16    13     2    1
    17    13    14    1
    18    14    15    1
    19    15    16    1
    20    17    16    1
    21    17    18    1
    22    18    19    1
    23    19    21    1
    24    21    23    1
    25    23    24    1
    26    24    25    1
    27    25    26    1
    28    26    27    1
    29    27    28    1
    30    19    20    1
    31    12     3    1
    32    17    13    1
    33    28    23    1
    34    11     6   ar
    35    20    13    1
    36    21    22    1
@<TRIPOS>MOLECULE
*****
 32 36 0 0 0
SMALL
GASTEIGER

@<TRIPOS>ATOM
      1 O         142.5242  138.8170  167.3349 O.2     1  UNL1       -0.2749
      2 C         141.6334  139.5411  166.3695 C.2     1  UNL1        0.2250
      3 N         142.0643  140.8577  165.7941 N.am    1  UNL1       -0.2750
      4 C         143.3860  141.4501  166.1841 C.3     1  UNL1        0.1000
      5 C         143.8168  142.7666  165.6087 C.3     1  UNL1        0.0670
      6 C         142.9260  143.4907  164.6432 C.ar    1  UNL1        0.0583
      7 N         143.3569  144.8073  164.0678 N.ar    1  UNL1       -0.2484
      8 C         142.4661  145.5314  163.1024 C.ar    1  UNL1        0.1023
      9 C         141.1444  144.9389  162.7123 C.ar    1  UNL1        0.0902
     10 C         140.7135  143.6224  163.2877 C.ar    1  UNL1        0.0040
     11 C         141.6043  142.8983  164.2532 C.ar    1  UNL1        0.0113
     12 C         141.1735  141.5818  164.8286 C.3     1  UNL1        0.1213
     13 C         140.3117  138.9487  165.9794 C.3     1  UNL1        0.0704
     14 C         140.1092  139.7497  167.2313 C.3     1  UNL1        0.0087
     15 C         138.6624  139.6524  167.6150 C.3     1  UNL1        0.0005
     16 C         137.9707  138.7912  166.6002 C.3     1  UNL1        0.0005
     17 C         138.9900  138.3563  165.5893 C.3     1  UNL1        0.0095
     18 C         139.1925  137.5552  164.3374 C.3     1  UNL1        0.0162
     19 C         140.6393  137.6525  163.9538 C.3     1  UNL1        0.0544
     20 C         141.3310  138.5138  164.9686 C.3     1  UNL1        0.0243
     21 N         141.2816  137.0027  162.7641 N.3     1  UNL1       -0.2995
     22 H         140.5563  136.4564  162.2996 H       1  UNL1        0.1232
     23 C         141.9311  137.8469  161.7080 C.3     1  UNL1        0.0590
     24 C         141.0929  138.4992  160.6488 C.3     1  UNL1        0.0478
     25 C         141.7424  139.3434  159.5926 C.3     1  UNL1        0.1435
     26 O         143.2300  139.5353  159.5956 O.3     1  UNL1       -0.3537
     27 C         144.0682  138.8830  160.6548 C.3     1  UNL1        0.1435
     28 C         143.4188  138.0388  161.7110 C.3     1  UNL1        0.0478
     29 C         140.2536  145.6630  161.7468 C.3     1  UNL1        0.4200
     30 F         139.3627  146.3871  160.7814 F       1  UNL1       -0.1658
     31 F         141.2947  145.5172  160.6769 F       1  UNL1       -0.1658
     32 F         139.2124  145.8087  162.8168 F       1  UNL1       -0.1658
@<TRIPOS>BOND
     1     1     2    2
     2     2     3   am
     3     3     4    1
     4     4     5    1
     5     5     6    1
     6     6     7   ar
     7     7     8   ar
     8     8     9   ar
     9     9    29    1
    10    29    30    1
    11    29    31    1
    12    29    32    1
    13     9    10   ar
    14    10    11   ar
    15    11    12    1
    16    13     2    1
    17    13    14    1
    18    14    15    1
    19    15    16    1
    20    17    16    1
    21    17    18    1
    22    18    19    1
    23    19    21    1
    24    21    23    1
    25    23    24    1
    26    24    25    1
    27    25    26    1
    28    26    27    1
    29    27    28    1
    30    19    20    1
    31    12     3    1
    32    17    13    1
    33    28    23    1
    34    11     6   ar
    35    20    13    1
    36    21    22    1
@<TRIPOS>MOLECULE
*****
 32 36 0 0 0
SMALL
GASTEIGER

@<TRIPOS>ATOM
      1 O         142.3246  137.6829  162.7286 O.2     1  UNL1       -0.2749
      2 C         141.4748  138.6221  163.5322 C.2     1  UNL1        0.2250
      3 N         141.8278  138.9180  164.9597 N.am    1  UNL1       -0.2750
      4 C         143.0306  138.2747  165.5837 C.3     1  UNL1        0.1000
      5 C         143.3836  138.5706  167.0112 C.3     1  UNL1        0.0670
      6 C         142.5338  139.5098  167.8147 C.ar    1  UNL1        0.0583
      7 N         142.8869  139.8057  169.2423 N.ar    1  UNL1       -0.2484
      8 C         142.0371  140.7450  170.0458 C.ar    1  UNL1        0.1023
      9 C         140.8342  141.3883  169.4218 C.ar    1  UNL1        0.0902
     10 C         140.4812  141.0924  167.9943 C.ar    1  UNL1        0.0040
     11 C         141.3310  140.1532  167.1908 C.ar    1  UNL1        0.0113
     12 C         140.9780  139.8573  165.7633 C.3     1  UNL1        0.1213
     13 C         140.2720  139.2655  162.9082 C.3     1  UNL1        0.0704
     14 C         139.9063  137.8581  163.2763 C.3     1  UNL1        0.0087
     15 C         138.4775  137.6316  162.8798 C.3     1  UNL1        0.0005
     16 C         137.9601  138.8990  162.2667 C.3     1  UNL1        0.0005
     17 C         139.0691  139.9088  162.2842 C.3     1  UNL1        0.0095
     18 C         139.4348  141.3162  161.9162 C.3     1  UNL1        0.0162
     19 C         140.8636  141.5427  162.3127 C.3     1  UNL1        0.0544
     20 C         141.3810  140.2753  162.9258 C.3     1  UNL1        0.0243
     21 N         141.6389  142.8136  162.1284 N.3     1  UNL1       -0.2995
     22 H         142.4451  142.5849  161.5468 H       1  UNL1        0.1232
     23 C         140.9815  144.0096  161.5062 C.3     1  UNL1        0.0590
     24 C         140.3249  145.0411  162.3750 C.3     1  UNL1        0.0478
     25 C         139.6674  146.2373  161.7528 C.3     1  UNL1        0.1435
     26 O         139.6666  146.4019  160.2619 O.3     1  UNL1       -0.3537
     27 C         140.3233  145.3703  159.3931 C.3     1  UNL1        0.1435
     28 C         140.9807  144.1742  160.0152 C.3     1  UNL1        0.0478
     29 C         139.9844  142.3275  170.2253 C.3     1  UNL1        0.4200
     30 F         139.1346  143.2668  171.0289 F       1  UNL1       -0.1658
     31 F         138.8491  141.3489  170.1686 F       1  UNL1       -0.1658
     32 F         141.1198  143.3062  170.2821 F       1  UNL1       -0.1658
@<TRIPOS>BOND
     1     1     2    2
     2     2     3   am
     3     3     4    1
     4     4     5    1
     5     5     6    1
     6     6     7   ar
     7     7     8   ar
     8     8     9   ar
     9     9    29    1
    10    29    30    1
    11    29    31    1
    12    29    32    1
    13     9    10   ar
    14    10    11   ar
    15    11    12    1
    16    13     2    1
    17    13    14    1
    18    14    15    1
    19    15    16    1
    20    17    16    1
    21    17    18    1
    22    18    19    1
    23    19    21    1
    24    21    23    1
    25    23    24    1
    26    24    25    1
    27    25    26    1
    28    26    27    1
    29    27    28    1
    30    19    20    1
    31    12     3    1
    32    17    13    1
    33    28    23    1
    34    11     6   ar
    35    20    13    1
    36    21    22    1
@<TRIPOS>MOLECULE
*****
 32 36 0 0 0
SMALL
GASTEIGER

@<TRIPOS>ATOM
      1 O         144.2353  142.4447  160.8783 O.2     1  UNL1       -0.2749
      2 C         143.1043  142.4047  161.8628 C.2     1  UNL1        0.2250
      3 N         142.5739  141.0861  162.3426 N.am    1  UNL1       -0.2750
      4 C         143.1745  139.8076  161.8380 C.3     1  UNL1        0.1000
      5 C         142.6441  138.4892  162.3178 C.3     1  UNL1        0.0670
      6 C         141.5131  138.4492  163.3023 C.ar    1  UNL1        0.0583
      7 N         140.9827  137.1306  163.7821 N.ar    1  UNL1       -0.2484
      8 C         139.8517  137.0907  164.7666 C.ar    1  UNL1        0.1023
      9 C         139.2511  138.3692  165.2713 C.ar    1  UNL1        0.0902
     10 C         139.7815  139.6877  164.7914 C.ar    1  UNL1        0.0040
     11 C         140.9125  139.7277  163.8070 C.ar    1  UNL1        0.0113
     12 C         141.4429  141.0461  163.3271 C.3     1  UNL1        0.1213
     13 C         142.5037  143.6831  162.3674 C.3     1  UNL1        0.0704
     14 C         143.7622  143.4250  163.1416 C.3     1  UNL1        0.0087
     15 C         143.9394  144.5440  164.1248 C.3     1  UNL1        0.0005
     16 C         142.7904  145.4937  163.9582 C.3     1  UNL1        0.0005
     17 C         141.9031  144.9617  162.8721 C.3     1  UNL1        0.0095
     18 C         140.6445  145.2199  162.0979 C.3     1  UNL1        0.0162
     19 C         140.4673  144.1009  161.1148 C.3     1  UNL1        0.0544
     20 C         141.6163  143.1512  161.2814 C.3     1  UNL1        0.0243
     21 N         139.3391  143.9570  160.1368 N.3     1  UNL1       -0.2995
     22 H         139.6623  144.3529  159.2540 H       1  UNL1        0.1232
     23 C         138.7855  142.5982  159.8250 C.3     1  UNL1        0.0590
     24 C         138.7240  142.1214  158.4041 C.3     1  UNL1        0.0478
     25 C         138.1704  140.7625  158.0923 C.3     1  UNL1        0.1435
     26 O         137.6784  139.8806  159.2014 O.3     1  UNL1       -0.3537
     27 C         137.7399  140.3575  160.6223 C.3     1  UNL1        0.1435
     28 C         138.2934  141.7162  160.9340 C.3     1  UNL1        0.0478
     29 C         138.1200  138.3293  166.2557 C.3     1  UNL1        0.4200
     30 F         136.9890  138.2893  167.2402 F       1  UNL1       -0.1658
     31 F         138.1346  136.8300  166.2116 F       1  UNL1       -0.1658
     32 F         138.1055  139.8285  166.2999 F       1  UNL1       -0.1658
@<TRIPOS>BOND
     1     1     2    2
     2     2     3   am
     3     3     4    1
     4     4     5    1
     5     5     6    1
     6     6     7   ar
     7     7     8   ar
     8     8     9   ar
     9     9    29    1
    10    29    30    1
    11    29    31    1
    12    29    32    1
    13     9    10   ar
    14    10    11   ar
    15    11    12    1
    16    13     2    1
    17    13    14    1
    18    14    15    1
    19    15    16    1
    20    17    16    1
    21    17    18    1
    22    18    19    1
    23    19    21    1
    24    21    23    1
    25    23    24    1
    26    24    25    1
    27    25    26    1
    28    26    27    1
    29    27    28    1
    30    19    20    1
    31    12     3    1
    32    17    13    1
    33    28    23    1
    34    11     6   ar
    35    20    13    1
    36    21    22    1
@<TRIPOS>MOLECULE
*****
 32 36 0 0 0
SMALL
GASTEIGER

@<TRIPOS>ATOM
      1 O         142.2644  137.7128  162.4463 O.2     1  UNL1       -0.2749
      2 C         141.4390  138.6558  163.2707 C.2     1  UNL1        0.2250
      3 N         141.8033  138.9161  164.7024 N.am    1  UNL1       -0.2750
      4 C         142.9929  138.2335  165.3096 C.3     1  UNL1        0.1000
      5 C         143.3571  138.4938  166.7412 C.3     1  UNL1        0.0670
      6 C         142.5317  139.4368  167.5656 C.ar    1  UNL1        0.0583
      7 N         142.8960  139.6971  168.9972 N.ar    1  UNL1       -0.2484
      8 C         142.0706  140.6400  169.8216 C.ar    1  UNL1        0.1023
      9 C         140.8809  141.3227  169.2143 C.ar    1  UNL1        0.0902
     10 C         140.5167  141.0623  167.7827 C.ar    1  UNL1        0.0040
     11 C         141.3421  140.1194  166.9583 C.ar    1  UNL1        0.0113
     12 C         140.9779  139.8591  165.5267 C.3     1  UNL1        0.1213
     13 C         140.2493  139.3384  162.6635 C.3     1  UNL1        0.0704
     14 C         139.8358  137.9523  163.0603 C.3     1  UNL1        0.0087
     15 C         138.3906  137.7782  162.6984 C.3     1  UNL1        0.0005
     16 C         137.9109  139.0567  162.0778 C.3     1  UNL1        0.0005
     17 C         139.0596  140.0210  162.0562 C.3     1  UNL1        0.0095
     18 C         139.4732  141.4072  161.6594 C.3     1  UNL1        0.0162
     19 C         140.9184  141.5813  162.0213 C.3     1  UNL1        0.0544
     20 C         141.3981  140.3027  162.6419 C.3     1  UNL1        0.0243
     21 N         141.7398  142.8171  161.8013 N.3     1  UNL1       -0.2995
     22 H         141.0869  143.5691  161.5809 H       1  UNL1        0.1232
     23 C         142.6351  143.3265  162.8916 C.3     1  UNL1        0.0590
     24 C         143.3284  142.3601  163.8055 C.3     1  UNL1        0.0478
     25 C         144.2238  142.8696  164.8959 C.3     1  UNL1        0.1435
     26 O         144.4257  144.3454  165.0723 O.3     1  UNL1       -0.3537
     27 C         143.7323  145.3118  164.1583 C.3     1  UNL1        0.1435
     28 C         142.8370  144.8024  163.0680 C.3     1  UNL1        0.0478
     29 C         140.0556  142.2656  170.0387 C.3     1  UNL1        0.4200
     30 F         139.2302  143.2086  170.8630 F       1  UNL1       -0.1658
     31 F         138.9324  141.2714  170.0513 F       1  UNL1       -0.1658
     32 F         141.1787  143.2598  170.0260 F       1  UNL1       -0.1658
@<TRIPOS>BOND
     1     1     2    2
     2     2     3   am
     3     3     4    1
     4     4     5    1
     5     5     6    1
     6     6     7   ar
     7     7     8   ar
     8     8     9   ar
     9     9    29    1
    10    29    30    1
    11    29    31    1
    12    29    32    1
    13     9    10   ar
    14    10    11   ar
    15    11    12    1
    16    13     2    1
    17    13    14    1
    18    14    15    1
    19    15    16    1
    20    17    16    1
    21    17    18    1
    22    18    19    1
    23    19    21    1
    24    21    23    1
    25    23    24    1
    26    24    25    1
    27    25    26    1
    28    26    27    1
    29    27    28    1
    30    19    20    1
    31    12     3    1
    32    17    13    1
    33    28    23    1
    34    11     6   ar
    35    20    13    1
    36    21    22    1
@<TRIPOS>MOLECULE
*****
 32 36 0 0 0
SMALL
GASTEIGER

@<TRIPOS>ATOM
      1 O         144.2727  145.0381  162.7510 O.2     1  UNL1       -0.2749
      2 C         143.0386  144.1884  162.8215 C.2     1  UNL1        0.2250
      3 N         142.7685  143.3578  164.0410 N.am    1  UNL1       -0.2750
      4 C         143.7325  143.3769  165.1900 C.3     1  UNL1        0.1000
      5 C         143.4624  142.5463  166.4095 C.3     1  UNL1        0.0670
      6 C         142.2283  141.6966  166.4799 C.ar    1  UNL1        0.0583
      7 N         141.9582  140.8660  167.6995 N.ar    1  UNL1       -0.2484
      8 C         140.7240  140.0163  167.7699 C.ar    1  UNL1        0.1023
      9 C         139.7600  139.9973  166.6208 C.ar    1  UNL1        0.0902
     10 C         140.0301  140.8279  165.4014 C.ar    1  UNL1        0.0040
     11 C         141.2642  141.6775  165.3309 C.ar    1  UNL1        0.0113
     12 C         141.5344  142.5081  164.1115 C.3     1  UNL1        0.1213
     13 C         142.0746  144.1693  161.6725 C.3     1  UNL1        0.0704
     14 C         141.5646  145.1472  162.6892 C.3     1  UNL1        0.0087
     15 C         140.2854  145.7324  162.1686 C.3     1  UNL1        0.0005
     16 C         140.0047  145.1163  160.8301 C.3     1  UNL1        0.0005
     17 C         141.1105  144.1503  160.5234 C.3     1  UNL1        0.0095
     18 C         141.6205  143.1724  159.5067 C.3     1  UNL1        0.0162
     19 C         142.8997  142.5872  160.0274 C.3     1  UNL1        0.0544
     20 C         143.1803  143.2033  161.3659 C.3     1  UNL1        0.0243
     21 N         143.7492  141.5652  159.3316 N.3     1  UNL1       -0.2995
     22 H         144.7185  141.7788  159.5664 H       1  UNL1        0.1232
     23 C         143.5473  140.1056  159.6121 C.3     1  UNL1        0.0590
     24 C         144.0253  139.5176  160.9066 C.3     1  UNL1        0.0478
     25 C         143.8234  138.0579  161.1872 C.3     1  UNL1        0.1435
     26 O         143.1436  137.1863  160.1733 O.3     1  UNL1       -0.3537
     27 C         142.6656  137.7743  158.8788 C.3     1  UNL1        0.1435
     28 C         142.8675  139.2339  158.5982 C.3     1  UNL1        0.0478
     29 C         138.5259  139.1476  166.6913 C.3     1  UNL1        0.4200
     30 F         137.2917  138.2979  166.7617 F       1  UNL1       -0.1658
     31 F         138.6218  138.8861  165.2174 F       1  UNL1       -0.1658
     32 F         138.4299  139.4091  168.1652 F       1  UNL1       -0.1658
@<TRIPOS>BOND
     1     1     2    2
     2     2     3   am
     3     3     4    1
     4     4     5    1
     5     5     6    1
     6     6     7   ar
     7     7     8   ar
     8     8     9   ar
     9     9    29    1
    10    29    30    1
    11    29    31    1
    12    29    32    1
    13     9    10   ar
    14    10    11   ar
    15    11    12    1
    16    13     2    1
    17    13    14    1
    18    14    15    1
    19    15    16    1
    20    17    16    1
    21    17    18    1
    22    18    19    1
    23    19    21    1
    24    21    23    1
    25    23    24    1
    26    24    25    1
    27    25    26    1
    28    26    27    1
    29    27    28    1
    30    19    20    1
    31    12     3    1
    32    17    13    1
    33    28    23    1
    34    11     6   ar
    35    20    13    1
    36    21    22    1
