@<TRIPOS>MOLECULE
*****
 29 33 0 0 0
SMALL
GASTEIGER

@<TRIPOS>ATOM
      1 N         141.9718  138.4326  163.5609 N.3     1  UNL1       -0.2695
      2 C         140.7500  138.3657  164.4284 C.3     1  UNL1        0.0939
      3 C         140.8183  138.8196  165.8565 C.3     1  UNL1        0.1095
      4 N         142.1085  139.3404  166.4170 N.pl3   1  UNL1       -0.2899
      5 C         143.3304  139.4073  165.5494 C.3     1  UNL1        0.1095
      6 C         143.2621  138.9534  164.1214 C.3     1  UNL1        0.0939
      7 C         142.1769  139.7944  167.8450 C.ar    1  UNL1        0.1400
      8 N         142.8665  139.0758  168.9666 N.ar    1  UNL1       -0.1943
      9 S         142.6835  139.8839  170.2169 S.2     1  UNL1        0.0144
     10 C         141.8806  141.1021  169.8681 C.ar    1  UNL1        0.0502
     11 C         141.3942  142.2544  170.6959 C.ar    1  UNL1        0.0080
     12 C         140.5947  143.3516  170.0579 C.ar    1  UNL1        0.0006
     13 C         140.2816  143.2962  168.5919 C.ar    1  UNL1        0.0001
     14 C         140.7680  142.1438  167.7640 C.ar    1  UNL1        0.0033
     15 C         141.5675  141.0467  168.4021 C.ar    1  UNL1        0.0396
     16 C         141.9035  137.9787  162.1329 C.3     1  UNL1        0.0769
     17 C         140.6595  138.2160  161.3291 C.3     1  UNL1        0.0445
     18 O         139.0619  145.8865  161.8126 O.2     1  UNL1       -0.2744
     19 C         139.0843  144.3875  161.7626 C.2     1  UNL1        0.2306
     20 C         140.2968  143.5304  161.5499 C.3     1  UNL1        0.1129
     21 C         139.8600  142.0956  161.5723 C.ar    1  UNL1        0.0002
     22 C         140.6207  140.8123  161.4158 C.ar    1  UNL1       -0.0059
     23 C         139.8988  139.4993  161.4857 C.ar    1  UNL1       -0.0104
     24 C         138.4163  139.4695  161.7122 C.ar    1  UNL1        0.0550
     25 CL        137.6945  138.1565  161.7821 Cl      1  UNL1       -0.0825
     26 C         137.6557  140.7529  161.8688 C.ar    1  UNL1        0.0254
     27 C         138.3775  142.0659  161.7988 C.ar    1  UNL1        0.0476
     28 N         137.8981  143.4824  161.9164 N.am    1  UNL1       -0.2839
     29 H         136.9682  143.7678  162.0679 H       1  UNL1        0.1549
@<TRIPOS>BOND
     1    18    19    2
     2    19    20    1
     3    20    21    1
     4    21    22   ar
     5    22    23   ar
     6    23    17    1
     7    17    16    1
     8    16     1    1
     9     1     2    1
    10     2     3    1
    11     3     4    1
    12     4     7    1
    13     7     8   ar
    14     8     9   ar
    15     9    10   ar
    16    10    11   ar
    17    11    12   ar
    18    12    13   ar
    19    13    14   ar
    20    14    15   ar
    21     4     5    1
    22     5     6    1
    23    23    24   ar
    24    24    25    1
    25    24    26   ar
    26    26    27   ar
    27    27    28    1
    28    28    19   am
    29    27    21   ar
    30     6     1    1
    31    15     7   ar
    32    15    10   ar
    33    28    29    1
@<TRIPOS>MOLECULE
*****
 29 33 0 0 0
SMALL
GASTEIGER

@<TRIPOS>ATOM
      1 N         139.9932  137.9290  163.3890 N.3     1  UNL1       -0.2695
      2 C         139.1909  138.3142  162.1815 C.3     1  UNL1        0.0939
      3 C         139.8772  138.5482  160.8684 C.3     1  UNL1        0.1095
      4 N         141.3658  138.3970  160.7628 N.pl3   1  UNL1       -0.2899
      5 C         142.1681  138.0118  161.9702 C.3     1  UNL1        0.1095
      6 C         141.4819  137.7778  163.2833 C.3     1  UNL1        0.0939
      7 C         142.0522  138.6310  159.4496 C.ar    1  UNL1        0.1400
      8 N         141.9906  137.7326  158.2501 N.ar    1  UNL1       -0.1943
      9 S         142.8209  138.3509  157.1647 S.2     1  UNL1        0.0144
     10 C         143.3958  139.6315  157.6934 C.ar    1  UNL1        0.0502
     11 C         144.2904  140.6623  157.0714 C.ar    1  UNL1        0.0080
     12 C         144.7101  141.8664  157.8616 C.ar    1  UNL1        0.0006
     13 C         144.2349  142.0395  159.2737 C.ar    1  UNL1        0.0001
     14 C         143.3402  141.0087  159.8958 C.ar    1  UNL1        0.0033
     15 C         142.9207  139.8047  159.1057 C.ar    1  UNL1        0.0396
     16 C         139.3069  137.6950  164.7020 C.3     1  UNL1        0.0769
     17 C         138.4461  138.7679  165.3001 C.3     1  UNL1        0.0445
     18 O         140.6740  142.1611  172.0192 O.2     1  UNL1       -0.2744
     19 C         140.3671  141.7439  170.6114 C.2     1  UNL1        0.2306
     20 C         139.6597  140.4873  170.1986 C.3     1  UNL1        0.1129
     21 C         139.5691  140.4769  168.7013 C.ar    1  UNL1        0.0002
     22 C         138.9776  139.4905  167.7385 C.ar    1  UNL1       -0.0059
     23 C         139.0376  139.7543  166.2630 C.ar    1  UNL1       -0.0104
     24 C         139.6891  141.0045  165.7505 C.ar    1  UNL1        0.0550
     25 CL        139.7490  141.2683  164.2751 Cl      1  UNL1       -0.0825
     26 C         140.2806  141.9908  166.7135 C.ar    1  UNL1        0.0254
     27 C         140.2206  141.7270  168.1888 C.ar    1  UNL1        0.0476
     28 N         140.7138  142.5101  169.3694 N.am    1  UNL1       -0.2839
     29 H         141.1827  143.3751  169.3350 H       1  UNL1        0.1549
@<TRIPOS>BOND
     1    18    19    2
     2    19    20    1
     3    20    21    1
     4    21    22   ar
     5    22    23   ar
     6    23    17    1
     7    17    16    1
     8    16     1    1
     9     1     2    1
    10     2     3    1
    11     3     4    1
    12     4     7    1
    13     7     8   ar
    14     8     9   ar
    15     9    10   ar
    16    10    11   ar
    17    11    12   ar
    18    12    13   ar
    19    13    14   ar
    20    14    15   ar
    21     4     5    1
    22     5     6    1
    23    23    24   ar
    24    24    25    1
    25    24    26   ar
    26    26    27   ar
    27    27    28    1
    28    28    19   am
    29    27    21   ar
    30     6     1    1
    31    15     7   ar
    32    15    10   ar
    33    28    29    1
@<TRIPOS>MOLECULE
*****
 29 33 0 0 0
SMALL
GASTEIGER

@<TRIPOS>ATOM
      1 N         143.0783  138.8377  163.7573 N.3     1  UNL1       -0.2695
      2 C         144.2221  138.8746  164.7270 C.3     1  UNL1        0.0939
      3 C         143.9717  139.1979  166.1702 C.3     1  UNL1        0.1095
      4 N         142.5776  139.4842  166.6438 N.pl3   1  UNL1       -0.2899
      5 C         141.4337  139.4472  165.6741 C.3     1  UNL1        0.1095
      6 C         141.6840  139.1240  164.2309 C.3     1  UNL1        0.0939
      7 C         142.3272  139.8074  168.0870 C.ar    1  UNL1        0.1400
      8 N         142.7418  138.9727  169.2623 N.ar    1  UNL1       -0.1943
      9 S         142.2891  139.6716  170.5099 S.2     1  UNL1        0.0144
     10 C         141.5946  140.9382  170.1057 C.ar    1  UNL1        0.0502
     11 C         140.9438  142.0259  170.9077 C.ar    1  UNL1        0.0080
     12 C         140.3165  143.1977  170.2123 C.ar    1  UNL1        0.0006
     13 C         140.3401  143.2816  168.7149 C.ar    1  UNL1        0.0001
     14 C         140.9909  142.1939  167.9128 C.ar    1  UNL1        0.0033
     15 C         141.6181  141.0222  168.6082 C.ar    1  UNL1        0.0396
     16 C         143.3286  138.5144  162.3142 C.3     1  UNL1        0.0769
     17 C         144.0065  139.5168  161.4277 C.3     1  UNL1        0.0445
     18 O         139.7532  145.9518  159.9710 O.2     1  UNL1       -0.2744
     19 C         140.7351  144.9014  160.3982 C.2     1  UNL1        0.2306
     20 C         140.6726  143.4432  160.0523 C.3     1  UNL1        0.1129
     21 C         141.8508  142.7654  160.6867 C.ar    1  UNL1        0.0002
     22 C         142.3058  141.3361  160.6877 C.ar    1  UNL1       -0.0059
     23 C         143.5515  140.9461  161.4268 C.ar    1  UNL1       -0.0104
     24 C         144.3421  141.9854  162.1648 C.ar    1  UNL1        0.0550
     25 CL        145.5878  141.5954  162.9039 Cl      1  UNL1       -0.0825
     26 C         143.8870  143.4147  162.1638 C.ar    1  UNL1        0.0254
     27 C         142.6414  143.8047  161.4248 C.ar    1  UNL1        0.0476
     28 N         141.9518  145.1248  161.2465 N.am    1  UNL1       -0.2839
     29 H         142.2462  145.9866  161.6206 H       1  UNL1        0.1549
@<TRIPOS>BOND
     1    18    19    2
     2    19    20    1
     3    20    21    1
     4    21    22   ar
     5    22    23   ar
     6    23    17    1
     7    17    16    1
     8    16     1    1
     9     1     2    1
    10     2     3    1
    11     3     4    1
    12     4     7    1
    13     7     8   ar
    14     8     9   ar
    15     9    10   ar
    16    10    11   ar
    17    11    12   ar
    18    12    13   ar
    19    13    14   ar
    20    14    15   ar
    21     4     5    1
    22     5     6    1
    23    23    24   ar
    24    24    25    1
    25    24    26   ar
    26    26    27   ar
    27    27    28    1
    28    28    19   am
    29    27    21   ar
    30     6     1    1
    31    15     7   ar
    32    15    10   ar
    33    28    29    1
@<TRIPOS>MOLECULE
*****
 29 33 0 0 0
SMALL
GASTEIGER

@<TRIPOS>ATOM
      1 N         141.0620  138.6558  163.5547 N.3     1  UNL1       -0.2695
      2 C         139.7019  139.1342  163.9685 C.3     1  UNL1        0.0939
      3 C         139.4699  139.6132  165.3709 C.3     1  UNL1        0.1095
      4 N         140.5980  139.6139  166.3595 N.pl3   1  UNL1       -0.2899
      5 C         141.9582  139.1356  165.9457 C.3     1  UNL1        0.1095
      6 C         142.1902  138.6565  164.5433 C.3     1  UNL1        0.0939
      7 C         140.3660  140.0930  167.7619 C.ar    1  UNL1        0.1400
      8 N         139.1830  139.7617  168.6224 N.ar    1  UNL1       -0.1943
      9 S         139.3622  140.4514  169.9424 S.2     1  UNL1        0.0144
     10 C         140.6561  141.2090  169.8976 C.ar    1  UNL1        0.0502
     11 C         141.3494  142.0719  170.9097 C.ar    1  UNL1        0.0080
     12 C         142.6633  142.7133  170.5744 C.ar    1  UNL1        0.0006
     13 C         143.2837  142.4918  169.2268 C.ar    1  UNL1        0.0001
     14 C         142.5903  141.6289  168.2145 C.ar    1  UNL1        0.0033
     15 C         141.2765  140.9875  168.5499 C.ar    1  UNL1        0.0396
     16 C         141.2941  138.1768  162.1523 C.3     1  UNL1        0.0769
     17 C         141.9149  139.0930  161.1398 C.3     1  UNL1        0.0445
     18 O         139.8834  146.6489  161.7755 O.2     1  UNL1       -0.2744
     19 C         140.5283  145.2949  161.7486 C.2     1  UNL1        0.2306
     20 C         139.8708  144.0133  161.3303 C.3     1  UNL1        0.1129
     21 C         140.8801  142.9111  161.4584 C.ar    1  UNL1        0.0002
     22 C         140.7979  141.4383  161.1864 C.ar    1  UNL1       -0.0059
     23 C         141.9971  140.5658  161.4119 C.ar    1  UNL1       -0.0104
     24 C         143.2785  141.1662  161.9094 C.ar    1  UNL1        0.0550
     25 CL        144.4777  140.2939  162.1349 Cl      1  UNL1       -0.0825
     26 C         143.3606  142.6391  162.1814 C.ar    1  UNL1        0.0254
     27 C         142.1615  143.5115  161.9560 C.ar    1  UNL1        0.0476
     28 N         141.9441  144.9848  162.1353 N.am    1  UNL1       -0.2839
     29 H         142.6131  145.6342  162.4513 H       1  UNL1        0.1549
@<TRIPOS>BOND
     1    18    19    2
     2    19    20    1
     3    20    21    1
     4    21    22   ar
     5    22    23   ar
     6    23    17    1
     7    17    16    1
     8    16     1    1
     9     1     2    1
    10     2     3    1
    11     3     4    1
    12     4     7    1
    13     7     8   ar
    14     8     9   ar
    15     9    10   ar
    16    10    11   ar
    17    11    12   ar
    18    12    13   ar
    19    13    14   ar
    20    14    15   ar
    21     4     5    1
    22     5     6    1
    23    23    24   ar
    24    24    25    1
    25    24    26   ar
    26    26    27   ar
    27    27    28    1
    28    28    19   am
    29    27    21   ar
    30     6     1    1
    31    15     7   ar
    32    15    10   ar
    33    28    29    1
@<TRIPOS>MOLECULE
*****
 29 33 0 0 0
SMALL
GASTEIGER

@<TRIPOS>ATOM
      1 N         143.3504  144.1470  162.1706 N.3     1  UNL1       -0.2695
      2 C         142.3913  144.2395  161.0210 C.3     1  UNL1        0.0939
      3 C         142.6068  143.4022  159.7952 C.3     1  UNL1        0.1095
      4 N         143.7814  142.4724  159.7190 N.pl3   1  UNL1       -0.2899
      5 C         144.7405  142.3799  160.8686 C.3     1  UNL1        0.1095
      6 C         144.5251  143.2171  162.0944 C.3     1  UNL1        0.0939
      7 C         143.9969  141.6351  158.4932 C.ar    1  UNL1        0.1400
      8 N         143.0959  140.5403  158.0037 N.ar    1  UNL1       -0.1943
      9 S         143.6934  139.9742  156.7497 S.2     1  UNL1        0.0144
     10 C         144.9638  140.7190  156.4643 C.ar    1  UNL1        0.0502
     11 C         145.9739  140.5952  155.3624 C.ar    1  UNL1        0.0080
     12 C         147.1717  141.4979  155.3380 C.ar    1  UNL1        0.0006
     13 C         147.3593  142.5244  156.4156 C.ar    1  UNL1        0.0001
     14 C         146.3491  142.6482  157.5176 C.ar    1  UNL1        0.0033
     15 C         145.1514  141.7456  157.5419 C.ar    1  UNL1        0.0396
     16 C         143.1350  144.9843  163.3964 C.3     1  UNL1        0.0769
     17 C         141.7471  145.3961  163.7889 C.3     1  UNL1        0.0445
     18 O         137.9158  138.9729  166.1735 O.2     1  UNL1       -0.2744
     19 C         138.4100  140.2512  165.5637 C.2     1  UNL1        0.2306
     20 C         139.7461  140.8868  165.8102 C.3     1  UNL1        0.1129
     21 C         139.8168  142.1467  164.9992 C.ar    1  UNL1        0.0002
     22 C         140.8910  143.1821  164.8450 C.ar    1  UNL1       -0.0059
     23 C         140.6728  144.3607  163.9431 C.ar    1  UNL1       -0.0104
     24 C         139.3804  144.5037  163.1954 C.ar    1  UNL1        0.0550
     25 CL        139.1621  145.6822  162.2934 Cl      1  UNL1       -0.0825
     26 C         138.3061  143.4682  163.3496 C.ar    1  UNL1        0.0254
     27 C         138.5243  142.2897  164.2515 C.ar    1  UNL1        0.0476
     28 N         137.6549  141.1182  164.6004 N.am    1  UNL1       -0.2839
     29 H         136.7479  140.9483  164.2574 H       1  UNL1        0.1549
@<TRIPOS>BOND
     1    18    19    2
     2    19    20    1
     3    20    21    1
     4    21    22   ar
     5    22    23   ar
     6    23    17    1
     7    17    16    1
     8    16     1    1
     9     1     2    1
    10     2     3    1
    11     3     4    1
    12     4     7    1
    13     7     8   ar
    14     8     9   ar
    15     9    10   ar
    16    10    11   ar
    17    11    12   ar
    18    12    13   ar
    19    13    14   ar
    20    14    15   ar
    21     4     5    1
    22     5     6    1
    23    23    24   ar
    24    24    25    1
    25    24    26   ar
    26    26    27   ar
    27    27    28    1
    28    28    19   am
    29    27    21   ar
    30     6     1    1
    31    15     7   ar
    32    15    10   ar
    33    28    29    1
@<TRIPOS>MOLECULE
*****
 29 33 0 0 0
SMALL
GASTEIGER

@<TRIPOS>ATOM
      1 N         140.3220  137.7623  162.4500 N.3     1  UNL1       -0.2695
      2 C         139.4841  138.2674  161.3130 C.3     1  UNL1        0.0939
      3 C         140.1206  138.5691  159.9886 C.3     1  UNL1        0.1095
      4 N         141.5949  138.3658  159.8013 N.pl3   1  UNL1       -0.2899
      5 C         142.4328  137.8608  160.9384 C.3     1  UNL1        0.1095
      6 C         141.7964  137.5590  162.2627 C.3     1  UNL1        0.0939
      7 C         142.2313  138.6676  158.4769 C.ar    1  UNL1        0.1400
      8 N         142.4083  140.0295  157.8737 N.ar    1  UNL1       -0.1943
      9 S         143.0889  139.8640  156.5473 S.2     1  UNL1        0.0144
     10 C         143.3326  138.3998  156.3307 C.ar    1  UNL1        0.0502
     11 C         143.9686  137.6444  155.2018 C.ar    1  UNL1        0.0080
     12 C         144.0747  136.1494  155.2653 C.ar    1  UNL1        0.0006
     13 C         143.5447  135.4100  156.4580 C.ar    1  UNL1        0.0001
     14 C         142.9086  136.1655  157.5871 C.ar    1  UNL1        0.0033
     15 C         142.8026  137.6604  157.5234 C.ar    1  UNL1        0.0396
     16 C         139.6856  137.4605  163.7744 C.3     1  UNL1        0.0769
     17 C         138.9077  138.5233  164.4922 C.3     1  UNL1        0.0445
     18 O         143.9031  142.7624  168.8166 O.2     1  UNL1       -0.2744
     19 C         142.7943  141.9377  168.2330 C.2     1  UNL1        0.2306
     20 C         142.7092  141.4506  166.8169 C.3     1  UNL1        0.1129
     21 C         141.4382  140.6673  166.6717 C.ar    1  UNL1        0.0002
     22 C         140.8282  139.9516  165.5031 C.ar    1  UNL1       -0.0059
     23 C         139.5177  139.2390  165.6609 C.ar    1  UNL1       -0.0104
     24 C         138.8173  139.2420  166.9873 C.ar    1  UNL1        0.0550
     25 CL        137.5069  138.5294  167.1451 Cl      1  UNL1       -0.0825
     26 C         139.4274  139.9577  168.1559 C.ar    1  UNL1        0.0254
     27 C         140.7378  140.6703  167.9981 C.ar    1  UNL1        0.0476
     28 N         141.5759  141.4555  168.9630 N.am    1  UNL1       -0.2839
     29 H         141.3636  141.6246  169.9094 H       1  UNL1        0.1549
@<TRIPOS>BOND
     1    18    19    2
     2    19    20    1
     3    20    21    1
     4    21    22   ar
     5    22    23   ar
     6    23    17    1
     7    17    16    1
     8    16     1    1
     9     1     2    1
    10     2     3    1
    11     3     4    1
    12     4     7    1
    13     7     8   ar
    14     8     9   ar
    15     9    10   ar
    16    10    11   ar
    17    11    12   ar
    18    12    13   ar
    19    13    14   ar
    20    14    15   ar
    21     4     5    1
    22     5     6    1
    23    23    24   ar
    24    24    25    1
    25    24    26   ar
    26    26    27   ar
    27    27    28    1
    28    28    19   am
    29    27    21   ar
    30     6     1    1
    31    15     7   ar
    32    15    10   ar
    33    28    29    1
@<TRIPOS>MOLECULE
*****
 29 33 0 0 0
SMALL
GASTEIGER

@<TRIPOS>ATOM
      1 N         144.1193  139.8221  163.7765 N.3     1  UNL1       -0.2695
      2 C         143.8108  139.0636  162.5197 C.3     1  UNL1        0.0939
      3 C         143.6902  139.7927  161.2142 C.3     1  UNL1        0.1095
      4 N         143.8780  141.2800  161.1657 N.pl3   1  UNL1       -0.2899
      5 C         144.1865  142.0385  162.4226 C.3     1  UNL1        0.1095
      6 C         144.3071  141.3095  163.7279 C.3     1  UNL1        0.0939
      7 C         143.7574  142.0091  159.8603 C.ar    1  UNL1        0.1400
      8 N         144.4897  141.6770  158.5940 N.ar    1  UNL1       -0.1943
      9 S         144.0682  142.6608  157.5432 S.2     1  UNL1        0.0144
     10 C         143.0754  143.6011  158.1600 C.ar    1  UNL1        0.0502
     11 C         142.3215  144.7719  157.6027 C.ar    1  UNL1        0.0080
     12 C         141.3755  145.5400  158.4774 C.ar    1  UNL1        0.0006
     13 C         141.1835  145.1372  159.9095 C.ar    1  UNL1        0.0001
     14 C         141.9374  143.9663  160.4669 C.ar    1  UNL1        0.0033
     15 C         142.8833  143.1982  159.5921 C.ar    1  UNL1        0.0396
     16 C         144.2399  139.0931  165.0819 C.3     1  UNL1        0.0769
     17 C         143.0432  138.4070  165.6711 C.3     1  UNL1        0.0445
     18 O         140.5495  142.0825  172.1438 O.2     1  UNL1       -0.2744
     19 C         140.7610  141.4338  170.8080 C.2     1  UNL1        0.2306
     20 C         142.0238  140.7748  170.3378 C.3     1  UNL1        0.1129
     21 C         141.7901  140.2640  168.9470 C.ar    1  UNL1        0.0002
     22 C         142.6769  139.5306  167.9849 C.ar    1  UNL1       -0.0059
     23 C         142.1564  139.1404  166.6332 C.ar    1  UNL1       -0.0104
     24 C         140.7491  139.4836  166.2438 C.ar    1  UNL1        0.0550
     25 CL        140.2286  139.0935  164.8922 Cl      1  UNL1       -0.0825
     26 C         139.8623  140.2171  167.2060 C.ar    1  UNL1        0.0254
     27 C         140.3828  140.6072  168.5575 C.ar    1  UNL1        0.0476
     28 N         139.7468  141.3302  169.7077 N.am    1  UNL1       -0.2839
     29 H         138.8254  141.6760  169.7355 H       1  UNL1        0.1549
@<TRIPOS>BOND
     1    18    19    2
     2    19    20    1
     3    20    21    1
     4    21    22   ar
     5    22    23   ar
     6    23    17    1
     7    17    16    1
     8    16     1    1
     9     1     2    1
    10     2     3    1
    11     3     4    1
    12     4     7    1
    13     7     8   ar
    14     8     9   ar
    15     9    10   ar
    16    10    11   ar
    17    11    12   ar
    18    12    13   ar
    19    13    14   ar
    20    14    15   ar
    21     4     5    1
    22     5     6    1
    23    23    24   ar
    24    24    25    1
    25    24    26   ar
    26    26    27   ar
    27    27    28    1
    28    28    19   am
    29    27    21   ar
    30     6     1    1
    31    15     7   ar
    32    15    10   ar
    33    28    29    1
@<TRIPOS>MOLECULE
*****
 29 33 0 0 0
SMALL
GASTEIGER

@<TRIPOS>ATOM
      1 N         138.4735  140.0298  163.2325 N.3     1  UNL1       -0.2695
      2 C         139.0911  139.3125  162.0689 C.3     1  UNL1        0.0939
      3 C         139.1416  139.9718  160.7225 C.3     1  UNL1        0.1095
      4 N         138.5746  141.3484  160.5397 N.pl3   1  UNL1       -0.2899
      5 C         137.9571  142.0658  161.7034 C.3     1  UNL1        0.1095
      6 C         137.9066  141.4065  163.0497 C.3     1  UNL1        0.0939
      7 C         138.6252  142.0077  159.1933 C.ar    1  UNL1        0.1400
      8 N         137.9584  141.5133  157.9439 N.ar    1  UNL1       -0.1943
      9 S         138.2725  142.4772  156.8384 S.2     1  UNL1        0.0144
     10 C         139.1334  143.5674  157.4045 C.ar    1  UNL1        0.0502
     11 C         139.7470  144.7868  156.7828 C.ar    1  UNL1        0.0080
     12 C         140.5785  145.7161  157.6165 C.ar    1  UNL1        0.0006
     13 C         140.7965  145.4259  159.0720 C.ar    1  UNL1        0.0001
     14 C         140.1829  144.2064  159.6938 C.ar    1  UNL1        0.0033
     15 C         139.3514  143.2772  158.8600 C.ar    1  UNL1        0.0396
     16 C         138.4230  139.3706  164.5789 C.3     1  UNL1        0.0769
     17 C         139.6540  138.7281  165.1461 C.3     1  UNL1        0.0445
     18 O         140.5200  142.1667  172.1496 O.2     1  UNL1       -0.2744
     19 C         140.6416  141.4883  170.8174 C.2     1  UNL1        0.2306
     20 C         139.5071  141.1270  169.9051 C.3     1  UNL1        0.1129
     21 C         140.0834  140.4675  168.6873 C.ar    1  UNL1        0.0002
     22 C         139.4433  139.9031  167.4537 C.ar    1  UNL1       -0.0059
     23 C         140.2941  139.2924  166.3797 C.ar    1  UNL1       -0.0104
     24 C         141.7848  139.2461  166.5394 C.ar    1  UNL1        0.0550
     25 CL        142.6355  138.6355  165.4655 Cl      1  UNL1       -0.0825
     26 C         142.4249  139.8105  167.7731 C.ar    1  UNL1        0.0254
     27 C         141.5742  140.4212  168.8470 C.ar    1  UNL1        0.0476
     28 N         141.9191  141.0521  170.1634 N.am    1  UNL1       -0.2839
     29 H         142.8250  141.1607  170.5333 H       1  UNL1        0.1549
@<TRIPOS>BOND
     1    18    19    2
     2    19    20    1
     3    20    21    1
     4    21    22   ar
     5    22    23   ar
     6    23    17    1
     7    17    16    1
     8    16     1    1
     9     1     2    1
    10     2     3    1
    11     3     4    1
    12     4     7    1
    13     7     8   ar
    14     8     9   ar
    15     9    10   ar
    16    10    11   ar
    17    11    12   ar
    18    12    13   ar
    19    13    14   ar
    20    14    15   ar
    21     4     5    1
    22     5     6    1
    23    23    24   ar
    24    24    25    1
    25    24    26   ar
    26    26    27   ar
    27    27    28    1
    28    28    19   am
    29    27    21   ar
    30     6     1    1
    31    15     7   ar
    32    15    10   ar
    33    28    29    1
@<TRIPOS>MOLECULE
*****
 29 33 0 0 0
SMALL
GASTEIGER

@<TRIPOS>ATOM
      1 N         139.7012  137.8547  163.7835 N.3     1  UNL1       -0.2695
      2 C         141.1807  138.0985  163.8216 C.3     1  UNL1        0.0939
      3 C         141.9253  138.3925  162.5530 C.3     1  UNL1        0.1095
      4 N         141.1904  138.4426  161.2464 N.pl3   1  UNL1       -0.2899
      5 C         139.7108  138.1987  161.2083 C.3     1  UNL1        0.1095
      6 C         138.9662  137.9047  162.4768 C.3     1  UNL1        0.0939
      7 C         141.9350  138.7365  159.9778 C.ar    1  UNL1        0.1400
      8 N         141.9794  137.8633  158.7590 N.ar    1  UNL1       -0.1943
      9 S         142.8377  138.5424  157.7333 S.2     1  UNL1        0.0144
     10 C         143.3238  139.8354  158.3182 C.ar    1  UNL1        0.0502
     11 C         144.2023  140.9189  157.7669 C.ar    1  UNL1        0.0080
     12 C         144.5230  142.1226  158.6028 C.ar    1  UNL1        0.0006
     13 C         143.9650  142.2425  159.9900 C.ar    1  UNL1        0.0001
     14 C         143.0864  141.1589  160.5414 C.ar    1  UNL1        0.0033
     15 C         142.7658  139.9553  159.7055 C.ar    1  UNL1        0.0396
     16 C         138.9566  137.5607  165.0520 C.3     1  UNL1        0.0769
     17 C         138.3011  138.6752  165.8124 C.3     1  UNL1        0.0445
     18 O         138.2979  145.6262  162.1644 O.2     1  UNL1       -0.2744
     19 C         138.4875  144.4226  163.0393 C.2     1  UNL1        0.2306
     20 C         137.8135  143.0935  162.8687 C.3     1  UNL1        0.1129
     21 C         138.2939  142.1863  163.9625 C.ar    1  UNL1        0.0002
     22 C         137.9726  140.7598  164.2969 C.ar    1  UNL1       -0.0059
     23 C         138.6223  140.1017  165.4780 C.ar    1  UNL1       -0.0104
     24 C         139.5932  140.8702  166.3246 C.ar    1  UNL1        0.0550
     25 CL        140.2429  140.2121  167.5056 Cl      1  UNL1       -0.0825
     26 C         139.9145  142.2967  165.9901 C.ar    1  UNL1        0.0254
     27 C         139.2648  142.9548  164.8091 C.ar    1  UNL1        0.0476
     28 N         139.3845  144.3369  164.2386 N.am    1  UNL1       -0.2839
     29 H         139.9521  145.0607  164.5896 H       1  UNL1        0.1549
@<TRIPOS>BOND
     1    18    19    2
     2    19    20    1
     3    20    21    1
     4    21    22   ar
     5    22    23   ar
     6    23    17    1
     7    17    16    1
     8    16     1    1
     9     1     2    1
    10     2     3    1
    11     3     4    1
    12     4     7    1
    13     7     8   ar
    14     8     9   ar
    15     9    10   ar
    16    10    11   ar
    17    11    12   ar
    18    12    13   ar
    19    13    14   ar
    20    14    15   ar
    21     4     5    1
    22     5     6    1
    23    23    24   ar
    24    24    25    1
    25    24    26   ar
    26    26    27   ar
    27    27    28    1
    28    28    19   am
    29    27    21   ar
    30     6     1    1
    31    15     7   ar
    32    15    10   ar
    33    28    29    1
