@<TRIPOS>MOLECULE
*****
 32 36 0 0 0
SMALL
GASTEIGER

@<TRIPOS>ATOM
      1 C         139.7513  144.5373  162.4615 C.ar    1  UNL1        0.2224
      2 N         140.5932  145.0462  163.5938 N.ar    1  UNL1       -0.1127
      3 N         140.5172  144.0497  164.7123 N.ar    1  UNL1       -0.1273
      4 C         139.6282  142.9249  164.2713 C.ar    1  UNL1        0.1704
      5 N         139.1549  143.2263  162.8802 N.ar    1  UNL1       -0.2796
      6 C         138.2491  142.4129  162.0038 C.3     1  UNL1        0.1574
      7 C         137.5931  141.0973  162.3019 C.3     1  UNL1        0.2299
      8 O         137.6808  140.2702  163.5501 O.3     1  UNL1       -0.4733
      9 C         138.4461  140.5543  164.8086 C.ar    1  UNL1        0.1415
     10 C         138.2619  139.4623  165.8203 C.ar    1  UNL1        0.0370
     11 C         138.9445  139.5519  167.1530 C.ar    1  UNL1        0.0031
     12 C         139.8112  140.7333  167.4739 C.ar    1  UNL1        0.0004
     13 C         139.9953  141.8253  166.4622 C.ar    1  UNL1        0.0061
     14 C         139.3128  141.7358  165.1295 C.ar    1  UNL1        0.0699
     15 C         140.4937  140.8228  168.8067 C.ar    1  UNL1        0.0031
     16 C         140.0063  141.8002  169.8348 C.ar    1  UNL1        0.0207
     17 C         140.6889  141.8897  171.1676 C.ar    1  UNL1        0.0989
     18 N         141.8588  141.0017  171.4722 N.ar    1  UNL1       -0.2423
     19 C         142.3462  140.0242  170.4440 C.ar    1  UNL1        0.0989
     20 C         141.6636  139.9348  169.1113 C.ar    1  UNL1        0.0207
     21 N         139.5424  145.2197  161.1421 N.pl3   1  UNL1       -0.2826
     22 H         138.7846  145.8366  161.0214 H       1  UNL1        0.1551
     23 C         141.2514  145.4217  157.5660 C.ar    1  UNL1        0.0726
     24 C         142.3793  144.4475  157.7354 C.ar    1  UNL1        0.0039
     25 C         142.5616  143.7307  159.0405 C.ar    1  UNL1        0.0012
     26 C         141.6160  143.9881  160.1760 C.ar    1  UNL1        0.0147
     27 C         140.4880  144.9623  160.0066 C.ar    1  UNL1        0.0504
     28 C         140.3057  145.6791  158.7015 C.ar    1  UNL1        0.0185
     29 F         140.8869  146.8551  154.9560 F       1  UNL1       -0.1659
     30 C         141.0691  146.1384  156.2610 C.3     1  UNL1        0.4186
     31 F         139.8037  146.7565  156.7772 F       1  UNL1       -0.1659
     32 F         142.3346  145.5203  155.7448 F       1  UNL1       -0.1659
@<TRIPOS>BOND
     1    29    30    1
     2    30    31    1
     3    30    32    1
     4    30    23    1
     5    23    24   ar
     6    24    25   ar
     7    25    26   ar
     8    26    27   ar
     9    27    21    1
    10    21     1    1
    11     1     2   ar
    12     2     3   ar
    13     3     4   ar
    14     4     5   ar
    15     5     6    1
    16     6     7    1
    17     7     8    1
    18     8     9    1
    19     9    10   ar
    20    10    11   ar
    21    11    12   ar
    22    12    15    1
    23    15    16   ar
    24    16    17   ar
    25    17    18   ar
    26    18    19   ar
    27    19    20   ar
    28    12    13   ar
    29    13    14   ar
    30    27    28   ar
    31    28    23   ar
    32     5     1   ar
    33    14     9   ar
    34    14     4    1
    35    20    15   ar
    36    21    22    1
@<TRIPOS>MOLECULE
*****
 32 36 0 0 0
SMALL
GASTEIGER

@<TRIPOS>ATOM
      1 C         139.7253  144.6110  162.4358 C.ar    1  UNL1        0.2224
      2 N         140.5653  145.1134  163.5725 N.ar    1  UNL1       -0.1127
      3 N         140.4965  144.1049  164.6808 N.ar    1  UNL1       -0.1273
      4 C         139.6139  142.9793  164.2290 C.ar    1  UNL1        0.1704
      5 N         139.1373  143.2922  162.8416 N.ar    1  UNL1       -0.2796
      6 C         138.2357  142.4823  161.9577 C.3     1  UNL1        0.1574
      7 C         137.5880  141.1597  162.2428 C.3     1  UNL1        0.2299
      8 O         137.6820  140.3204  163.4824 O.3     1  UNL1       -0.4733
      9 C         138.4469  140.5961  164.7430 C.ar    1  UNL1        0.1415
     10 C         138.2704  139.4927  165.7436 C.ar    1  UNL1        0.0370
     11 C         138.9537  139.5726  167.0765 C.ar    1  UNL1        0.0031
     12 C         139.8135  140.7560  167.4087 C.ar    1  UNL1        0.0004
     13 C         139.9900  141.8594  166.4081 C.ar    1  UNL1        0.0061
     14 C         139.3067  141.7795  165.0752 C.ar    1  UNL1        0.0699
     15 C         140.4968  140.8359  168.7417 C.ar    1  UNL1        0.0031
     16 C         141.6550  139.9327  169.0461 C.ar    1  UNL1        0.0207
     17 C         142.3384  140.0126  170.3791 C.ar    1  UNL1        0.0989
     18 N         141.8634  140.9957  171.4076 N.ar    1  UNL1       -0.2423
     19 C         140.7051  141.8990  171.1032 C.ar    1  UNL1        0.0989
     20 C         140.0219  141.8190  169.7702 C.ar    1  UNL1        0.0207
     21 N         139.5110  145.3057  161.1237 N.pl3   1  UNL1       -0.2826
     22 H         138.7546  145.9260  161.0130 H       1  UNL1        0.1551
     23 C         142.5222  143.8370  158.9965 C.ar    1  UNL1        0.0726
     24 C         142.3252  144.5541  157.6938 C.ar    1  UNL1        0.0039
     25 C         141.1901  145.5217  157.5344 C.ar    1  UNL1        0.0012
     26 C         140.2521  145.7722  158.6777 C.ar    1  UNL1        0.0147
     27 C         140.4490  145.0552  159.9804 C.ar    1  UNL1        0.0504
     28 C         141.5841  144.0876  160.1398 C.ar    1  UNL1        0.0185
     29 F         144.7923  141.9019  159.3152 F       1  UNL1       -0.1659
     30 C         143.6573  142.8694  159.1558 C.3     1  UNL1        0.4186
     31 F         143.5428  142.4967  157.7074 F       1  UNL1       -0.1659
     32 F         143.7716  143.2422  160.6043 F       1  UNL1       -0.1659
@<TRIPOS>BOND
     1    29    30    1
     2    30    31    1
     3    30    32    1
     4    30    23    1
     5    23    24   ar
     6    24    25   ar
     7    25    26   ar
     8    26    27   ar
     9    27    21    1
    10    21     1    1
    11     1     2   ar
    12     2     3   ar
    13     3     4   ar
    14     4     5   ar
    15     5     6    1
    16     6     7    1
    17     7     8    1
    18     8     9    1
    19     9    10   ar
    20    10    11   ar
    21    11    12   ar
    22    12    15    1
    23    15    16   ar
    24    16    17   ar
    25    17    18   ar
    26    18    19   ar
    27    19    20   ar
    28    12    13   ar
    29    13    14   ar
    30    27    28   ar
    31    28    23   ar
    32     5     1   ar
    33    14     9   ar
    34    14     4    1
    35    20    15   ar
    36    21    22    1
@<TRIPOS>MOLECULE
*****
 32 36 0 0 0
SMALL
GASTEIGER

@<TRIPOS>ATOM
      1 C         143.5864  138.6691  162.8497 C.ar    1  UNL1        0.2224
      2 N         144.2984  139.4009  163.9485 N.ar    1  UNL1       -0.1127
      3 N         143.3137  139.6526  165.0517 N.ar    1  UNL1       -0.1273
      4 C         141.9931  139.0763  164.6346 C.ar    1  UNL1        0.1704
      5 N         142.1617  138.4685  163.2737 N.ar    1  UNL1       -0.2796
      6 C         141.1383  137.7702  162.4280 C.3     1  UNL1        0.1574
      7 C         139.6937  137.5072  162.7344 C.3     1  UNL1        0.2299
      8 O         138.9156  137.8777  163.9622 O.3     1  UNL1       -0.4733
      9 C         139.3900  138.6025  165.1868 C.ar    1  UNL1        0.1415
     10 C         138.2847  138.7702  166.1869 C.ar    1  UNL1        0.0370
     11 C         138.5491  139.4714  167.4863 C.ar    1  UNL1        0.0031
     12 C         139.9188  140.0049  167.7855 C.ar    1  UNL1        0.0004
     13 C         141.0240  139.8372  166.7854 C.ar    1  UNL1        0.0061
     14 C         140.7596  139.1360  165.4861 C.ar    1  UNL1        0.0699
     15 C         140.1831  140.7061  169.0850 C.ar    1  UNL1        0.0031
     16 C         140.7131  139.9364  170.2583 C.ar    1  UNL1        0.0207
     17 C         140.9774  140.6377  171.5577 C.ar    1  UNL1        0.0989
     18 N         140.7118  142.1086  171.6838 N.ar    1  UNL1       -0.2423
     19 C         140.1818  142.8782  170.5104 C.ar    1  UNL1        0.0989
     20 C         139.9175  142.1770  169.2110 C.ar    1  UNL1        0.0207
     21 N         144.1927  138.2173  161.5542 N.pl3   1  UNL1       -0.2826
     22 H         144.9647  137.6063  161.5586 H       1  UNL1        0.1551
     23 C         142.3555  138.2115  158.0365 C.ar    1  UNL1        0.0726
     24 C         142.4833  139.6545  157.6475 C.ar    1  UNL1        0.0039
     25 C         143.1811  140.6185  158.5608 C.ar    1  UNL1        0.0012
     26 C         143.7508  140.1394  159.8630 C.ar    1  UNL1        0.0147
     27 C         143.6230  138.6964  160.2520 C.ar    1  UNL1        0.0504
     28 C         142.9253  137.7324  159.3387 C.ar    1  UNL1        0.0185
     29 F         140.9602  136.2836  156.2099 F       1  UNL1       -0.1659
     30 C         141.6578  137.2475  157.1232 C.3     1  UNL1        0.4186
     31 F         140.3310  137.7135  157.6450 F       1  UNL1       -0.1659
     32 F         142.9847  136.7816  156.6014 F       1  UNL1       -0.1659
@<TRIPOS>BOND
     1    29    30    1
     2    30    31    1
     3    30    32    1
     4    30    23    1
     5    23    24   ar
     6    24    25   ar
     7    25    26   ar
     8    26    27   ar
     9    27    21    1
    10    21     1    1
    11     1     2   ar
    12     2     3   ar
    13     3     4   ar
    14     4     5   ar
    15     5     6    1
    16     6     7    1
    17     7     8    1
    18     8     9    1
    19     9    10   ar
    20    10    11   ar
    21    11    12   ar
    22    12    15    1
    23    15    16   ar
    24    16    17   ar
    25    17    18   ar
    26    18    19   ar
    27    19    20   ar
    28    12    13   ar
    29    13    14   ar
    30    27    28   ar
    31    28    23   ar
    32     5     1   ar
    33    14     9   ar
    34    14     4    1
    35    20    15   ar
    36    21    22    1
@<TRIPOS>MOLECULE
*****
 32 36 0 0 0
SMALL
GASTEIGER

@<TRIPOS>ATOM
      1 C         143.5234  138.6886  162.8445 C.ar    1  UNL1        0.2224
      2 N         144.2427  139.4194  163.9393 N.ar    1  UNL1       -0.1127
      3 N         143.2670  139.6645  165.0519 N.ar    1  UNL1       -0.1273
      4 C         141.9446  139.0853  164.6446 C.ar    1  UNL1        0.1704
      5 N         142.1031  138.4822  163.2804 N.ar    1  UNL1       -0.2796
      6 C         141.0746  137.7832  162.4417 C.3     1  UNL1        0.1574
      7 C         139.6335  137.5146  162.7600 C.3     1  UNL1        0.2299
      8 O         138.8652  137.8788  163.9957 O.3     1  UNL1       -0.4733
      9 C         139.3480  138.6015  165.2183 C.ar    1  UNL1        0.1415
     10 C         138.2510  138.7626  166.2286 C.ar    1  UNL1        0.0370
     11 C         138.5246  139.4607  167.5277 C.ar    1  UNL1        0.0031
     12 C         139.8951  139.9976  167.8165 C.ar    1  UNL1        0.0004
     13 C         140.9921  139.8365  166.8062 C.ar    1  UNL1        0.0061
     14 C         140.7185  139.1384  165.5071 C.ar    1  UNL1        0.0699
     15 C         140.1687  140.6958  169.1157 C.ar    1  UNL1        0.0031
     16 C         140.7176  139.9255  170.2800 C.ar    1  UNL1        0.0207
     17 C         140.9912  140.6237  171.5792 C.ar    1  UNL1        0.0989
     18 N         140.7158  142.0920  171.7141 N.ar    1  UNL1       -0.2423
     19 C         140.1669  142.8622  170.5498 C.ar    1  UNL1        0.0989
     20 C         139.8933  142.1641  169.2506 C.ar    1  UNL1        0.0207
     21 N         144.1197  138.2427  161.5423 N.pl3   1  UNL1       -0.2826
     22 H         144.8422  137.5739  161.5352 H       1  UNL1        0.1551
     23 C         143.2776  140.8513  158.6725 C.ar    1  UNL1        0.0726
     24 C         142.6064  139.9615  157.6687 C.ar    1  UNL1        0.0039
     25 C         142.4396  138.4988  157.9561 C.ar    1  UNL1        0.0012
     26 C         142.9441  137.9258  159.2473 C.ar    1  UNL1        0.0147
     27 C         143.6153  138.8156  160.2511 C.ar    1  UNL1        0.0504
     28 C         143.7821  140.2784  159.9637 C.ar    1  UNL1        0.0185
     29 F         143.6111  143.7767  158.0977 F       1  UNL1       -0.1659
     30 C         143.4444  142.3141  158.3851 C.3     1  UNL1        0.4186
     31 F         144.7875  142.2921  159.0526 F       1  UNL1       -0.1659
     32 F         142.1013  142.3359  157.7176 F       1  UNL1       -0.1659
@<TRIPOS>BOND
     1    29    30    1
     2    30    31    1
     3    30    32    1
     4    30    23    1
     5    23    24   ar
     6    24    25   ar
     7    25    26   ar
     8    26    27   ar
     9    27    21    1
    10    21     1    1
    11     1     2   ar
    12     2     3   ar
    13     3     4   ar
    14     4     5   ar
    15     5     6    1
    16     6     7    1
    17     7     8    1
    18     8     9    1
    19     9    10   ar
    20    10    11   ar
    21    11    12   ar
    22    12    15    1
    23    15    16   ar
    24    16    17   ar
    25    17    18   ar
    26    18    19   ar
    27    19    20   ar
    28    12    13   ar
    29    13    14   ar
    30    27    28   ar
    31    28    23   ar
    32     5     1   ar
    33    14     9   ar
    34    14     4    1
    35    20    15   ar
    36    21    22    1
@<TRIPOS>MOLECULE
*****
 32 36 0 0 0
SMALL
GASTEIGER

@<TRIPOS>ATOM
      1 C         144.2295  142.6113  161.0519 C.ar    1  UNL1        0.2224
      2 N         144.0070  143.8102  161.9256 N.ar    1  UNL1       -0.1127
      3 N         143.6239  143.3235  163.2917 N.ar    1  UNL1       -0.1273
      4 C         143.6097  141.8238  163.2624 C.ar    1  UNL1        0.1704
      5 N         143.9840  141.3838  161.8781 N.ar    1  UNL1       -0.2796
      6 C         144.1106  139.9883  161.3426 C.3     1  UNL1        0.1574
      7 C         143.8942  138.6883  162.0591 C.3     1  UNL1        0.2299
      8 O         143.4977  138.4628  163.4880 O.3     1  UNL1       -0.4733
      9 C         143.2197  139.4815  164.5535 C.ar    1  UNL1        0.1415
     10 C         142.8525  138.8289  165.8531 C.ar    1  UNL1        0.0370
     11 C         142.5351  139.6721  167.0524 C.ar    1  UNL1        0.0031
     12 C         142.5849  141.1679  166.9520 C.ar    1  UNL1        0.0004
     13 C         142.9522  141.8205  165.6523 C.ar    1  UNL1        0.0061
     14 C         143.2696  140.9773  164.4531 C.ar    1  UNL1        0.0699
     15 C         142.2675  142.0111  168.1513 C.ar    1  UNL1        0.0031
     16 C         140.9122  142.6387  168.2893 C.ar    1  UNL1        0.0207
     17 C         140.5947  143.4819  169.4887 C.ar    1  UNL1        0.0989
     18 N         141.6327  143.6974  170.5499 N.ar    1  UNL1       -0.2423
     19 C         142.9881  143.0697  170.4118 C.ar    1  UNL1        0.0989
     20 C         143.3054  142.2265  169.2125 C.ar    1  UNL1        0.0207
     21 N         144.6277  142.6359  159.6059 N.pl3   1  UNL1       -0.2826
     22 H         145.5753  142.5448  159.3546 H       1  UNL1        0.1551
     23 C         141.7096  144.2126  157.4269 C.ar    1  UNL1        0.0726
     24 C         141.4913  143.1258  156.4165 C.ar    1  UNL1        0.0039
     25 C         142.3185  141.8756  156.4692 C.ar    1  UNL1        0.0012
     26 C         143.3640  141.7123  157.5323 C.ar    1  UNL1        0.0147
     27 C         143.5823  142.7991  158.5428 C.ar    1  UNL1        0.0504
     28 C         142.7550  144.0494  158.4901 C.ar    1  UNL1        0.0185
     29 F         140.0551  146.7129  157.3215 F       1  UNL1       -0.1659
     30 C         140.8824  145.4628  157.3742 C.3     1  UNL1        0.4186
     31 F         142.1306  146.2917  157.4439 F       1  UNL1       -0.1659
     32 F         139.6342  144.6339  157.3045 F       1  UNL1       -0.1659
@<TRIPOS>BOND
     1    29    30    1
     2    30    31    1
     3    30    32    1
     4    30    23    1
     5    23    24   ar
     6    24    25   ar
     7    25    26   ar
     8    26    27   ar
     9    27    21    1
    10    21     1    1
    11     1     2   ar
    12     2     3   ar
    13     3     4   ar
    14     4     5   ar
    15     5     6    1
    16     6     7    1
    17     7     8    1
    18     8     9    1
    19     9    10   ar
    20    10    11   ar
    21    11    12   ar
    22    12    15    1
    23    15    16   ar
    24    16    17   ar
    25    17    18   ar
    26    18    19   ar
    27    19    20   ar
    28    12    13   ar
    29    13    14   ar
    30    27    28   ar
    31    28    23   ar
    32     5     1   ar
    33    14     9   ar
    34    14     4    1
    35    20    15   ar
    36    21    22    1
@<TRIPOS>MOLECULE
*****
 32 36 0 0 0
SMALL
GASTEIGER

@<TRIPOS>ATOM
      1 C         139.9379  145.1038  161.4478 C.ar    1  UNL1        0.2224
      2 N         138.8038  145.0390  162.4273 N.ar    1  UNL1       -0.1127
      3 N         139.3031  144.3649  163.6708 N.ar    1  UNL1       -0.1273
      4 C         140.7460  144.0132  163.4598 C.ar    1  UNL1        0.1704
      5 N         141.1382  144.4698  162.0859 N.ar    1  UNL1       -0.2796
      6 C         142.4693  144.3494  161.4048 C.3     1  UNL1        0.1574
      7 C         143.7368  143.7425  161.9295 C.3     1  UNL1        0.2299
      8 O         143.9862  143.1062  163.2647 O.3     1  UNL1       -0.4733
      9 C         143.0298  142.9196  164.4052 C.ar    1  UNL1        0.1415
     10 C         143.6874  142.2324  165.5650 C.ar    1  UNL1        0.0370
     11 C         142.9030  141.9488  166.8116 C.ar    1  UNL1        0.0031
     12 C         141.4609  142.3524  166.8984 C.ar    1  UNL1        0.0004
     13 C         140.8033  143.0396  165.7386 C.ar    1  UNL1        0.0061
     14 C         141.5878  143.3232  164.4920 C.ar    1  UNL1        0.0699
     15 C         140.6764  142.0688  168.1451 C.ar    1  UNL1        0.0031
     16 C         140.5778  143.1083  169.2220 C.ar    1  UNL1        0.0207
     17 C         139.7933  142.8246  170.4687 C.ar    1  UNL1        0.0989
     18 N         139.1075  141.5014  170.6385 N.ar    1  UNL1       -0.2423
     19 C         139.2061  140.4619  169.5615 C.ar    1  UNL1        0.0989
     20 C         139.9906  140.7456  168.3149 C.ar    1  UNL1        0.0207
     21 N         139.8816  145.6983  160.0717 N.pl3   1  UNL1       -0.2826
     22 H         139.6889  146.6569  159.9572 H       1  UNL1        0.1551
     23 C         141.1312  144.4999  156.5007 C.ar    1  UNL1        0.0726
     24 C         140.5935  143.1000  156.4673 C.ar    1  UNL1        0.0039
     25 C         139.8185  142.5662  157.6354 C.ar    1  UNL1        0.0012
     26 C         139.5812  143.4323  158.8368 C.ar    1  UNL1        0.0147
     27 C         140.1189  144.8322  158.8703 C.ar    1  UNL1        0.0504
     28 C         140.8939  145.3660  157.7022 C.ar    1  UNL1        0.0185
     29 F         142.6813  145.5674  154.1646 F       1  UNL1       -0.1659
     30 C         141.9063  145.0337  155.3326 C.3     1  UNL1        0.4186
     31 F         141.2512  146.3715  155.5093 F       1  UNL1       -0.1659
     32 F         142.5613  143.6959  155.1560 F       1  UNL1       -0.1659
@<TRIPOS>BOND
     1    29    30    1
     2    30    31    1
     3    30    32    1
     4    30    23    1
     5    23    24   ar
     6    24    25   ar
     7    25    26   ar
     8    26    27   ar
     9    27    21    1
    10    21     1    1
    11     1     2   ar
    12     2     3   ar
    13     3     4   ar
    14     4     5   ar
    15     5     6    1
    16     6     7    1
    17     7     8    1
    18     8     9    1
    19     9    10   ar
    20    10    11   ar
    21    11    12   ar
    22    12    15    1
    23    15    16   ar
    24    16    17   ar
    25    17    18   ar
    26    18    19   ar
    27    19    20   ar
    28    12    13   ar
    29    13    14   ar
    30    27    28   ar
    31    28    23   ar
    32     5     1   ar
    33    14     9   ar
    34    14     4    1
    35    20    15   ar
    36    21    22    1
@<TRIPOS>MOLECULE
*****
 32 36 0 0 0
SMALL
GASTEIGER

@<TRIPOS>ATOM
      1 C         141.9256  144.1463  162.0280 C.ar    1  UNL1        0.2224
      2 N         140.9747  144.4942  163.1347 N.ar    1  UNL1       -0.1127
      3 N         141.1052  143.4499  164.2035 N.ar    1  UNL1       -0.1273
      4 C         142.1367  142.4564  163.7573 C.ar    1  UNL1        0.1704
      5 N         142.6437  142.8869  162.4128 N.ar    1  UNL1       -0.2796
      6 C         143.6791  142.2292  161.5493 C.3     1  UNL1        0.1574
      7 C         144.4631  140.9787  161.8170 C.3     1  UNL1        0.2299
      8 O         144.4053  140.0771  163.0144 O.3     1  UNL1       -0.4733
      9 C         143.5494  140.2032  164.2398 C.ar    1  UNL1        0.1415
     10 C         143.8034  139.0821  165.2034 C.ar    1  UNL1        0.0370
     11 C         143.0478  139.0199  166.4976 C.ar    1  UNL1        0.0031
     12 C         142.0381  140.0788  166.8283 C.ar    1  UNL1        0.0004
     13 C         141.7841  141.1999  165.8646 C.ar    1  UNL1        0.0061
     14 C         142.5398  141.2621  164.5704 C.ar    1  UNL1        0.0699
     15 C         141.2825  140.0166  168.1226 C.ar    1  UNL1        0.0031
     16 C         142.0001  139.6737  169.3943 C.ar    1  UNL1        0.0207
     17 C         141.2445  139.6115  170.6886 C.ar    1  UNL1        0.0989
     18 N         139.7712  139.8922  170.7111 N.ar    1  UNL1       -0.2423
     19 C         139.0535  140.2351  169.4393 C.ar    1  UNL1        0.0989
     20 C         139.8091  140.2973  168.1451 C.ar    1  UNL1        0.0207
     21 N         142.1235  144.9217  160.7593 N.pl3   1  UNL1       -0.2826
     22 H         142.7834  145.6515  160.7263 H       1  UNL1        0.1551
     23 C         140.1783  145.3170  157.3228 C.ar    1  UNL1        0.0726
     24 C         139.7010  143.9118  157.1039 C.ar    1  UNL1        0.0039
     25 C         140.0314  142.8433  158.1036 C.ar    1  UNL1        0.0012
     26 C         140.8388  143.1799  159.3220 C.ar    1  UNL1        0.0147
     27 C         141.3161  144.5851  159.5409 C.ar    1  UNL1        0.0504
     28 C         140.9857  145.6536  158.5412 C.ar    1  UNL1        0.0185
     29 F         139.5176  147.4540  155.3237 F       1  UNL1       -0.1659
     30 C         139.8480  146.3855  156.3232 C.3     1  UNL1        0.4186
     31 F         140.2685  145.4733  155.2092 F       1  UNL1       -0.1659
     32 F         139.4275  147.2976  157.4373 F       1  UNL1       -0.1659
@<TRIPOS>BOND
     1    29    30    1
     2    30    31    1
     3    30    32    1
     4    30    23    1
     5    23    24   ar
     6    24    25   ar
     7    25    26   ar
     8    26    27   ar
     9    27    21    1
    10    21     1    1
    11     1     2   ar
    12     2     3   ar
    13     3     4   ar
    14     4     5   ar
    15     5     6    1
    16     6     7    1
    17     7     8    1
    18     8     9    1
    19     9    10   ar
    20    10    11   ar
    21    11    12   ar
    22    12    15    1
    23    15    16   ar
    24    16    17   ar
    25    17    18   ar
    26    18    19   ar
    27    19    20   ar
    28    12    13   ar
    29    13    14   ar
    30    27    28   ar
    31    28    23   ar
    32     5     1   ar
    33    14     9   ar
    34    14     4    1
    35    20    15   ar
    36    21    22    1
@<TRIPOS>MOLECULE
*****
 32 36 0 0 0
SMALL
GASTEIGER

@<TRIPOS>ATOM
      1 C         139.6852  138.9173  165.0669 C.ar    1  UNL1        0.2224
      2 N         140.5761  137.8626  164.4804 N.ar    1  UNL1       -0.1127
      3 N         140.4999  137.9697  162.9862 N.ar    1  UNL1       -0.1273
      4 C         139.5618  139.0907  162.6492 C.ar    1  UNL1        0.1704
      5 N         139.0584  139.6762  163.9351 N.ar    1  UNL1       -0.2796
      6 C         138.1013  140.8141  164.1331 C.3     1  UNL1        0.1574
      7 C         137.4112  141.6474  163.0941 C.3     1  UNL1        0.2299
      8 O         137.5079  141.5485  161.6005 O.3     1  UNL1       -0.4733
      9 C         138.3184  140.5921  160.7769 C.ar    1  UNL1        0.1415
     10 C         138.1279  140.8351  159.3091 C.ar    1  UNL1        0.0370
     11 C         138.8515  139.9842  158.3080 C.ar    1  UNL1        0.0031
     12 C         139.7656  138.8903  158.7747 C.ar    1  UNL1        0.0004
     13 C         139.9561  138.6473  160.2425 C.ar    1  UNL1        0.0061
     14 C         139.2326  139.4982  161.2437 C.ar    1  UNL1        0.0699
     15 C         140.4892  138.0394  157.7734 C.ar    1  UNL1        0.0031
     16 C         141.9600  137.7878  157.9265 C.ar    1  UNL1        0.0207
     17 C         142.6836  136.9369  156.9253 C.ar    1  UNL1        0.0989
     18 N         141.9364  136.3376  155.7710 N.ar    1  UNL1       -0.2423
     19 C         140.4655  136.5891  155.6180 C.ar    1  UNL1        0.0989
     20 C         139.7420  137.4400  156.6192 C.ar    1  UNL1        0.0207
     21 N         139.4607  139.1688  166.5285 N.pl3   1  UNL1       -0.2826
     22 H         138.6641  138.8005  166.9747 H       1  UNL1        0.1551
     23 C         141.0150  142.0870  168.7234 C.ar    1  UNL1        0.0726
     24 C         142.4280  141.6066  168.8741 C.ar    1  UNL1        0.0039
     25 C         142.8518  140.3135  168.2429 C.ar    1  UNL1        0.0012
     26 C         141.8627  139.5009  167.4611 C.ar    1  UNL1        0.0147
     27 C         140.4497  139.9813  167.3103 C.ar    1  UNL1        0.0504
     28 C         140.0259  141.2744  167.9415 C.ar    1  UNL1        0.0185
     29 F         140.1674  144.6731  169.9858 F       1  UNL1       -0.1659
     30 C         140.5912  143.3801  169.3546 C.3     1  UNL1        0.4186
     31 F         139.9559  143.8023  168.0631 F       1  UNL1       -0.1659
     32 F         141.2265  142.9578  170.6461 F       1  UNL1       -0.1659
@<TRIPOS>BOND
     1    29    30    1
     2    30    31    1
     3    30    32    1
     4    30    23    1
     5    23    24   ar
     6    24    25   ar
     7    25    26   ar
     8    26    27   ar
     9    27    21    1
    10    21     1    1
    11     1     2   ar
    12     2     3   ar
    13     3     4   ar
    14     4     5   ar
    15     5     6    1
    16     6     7    1
    17     7     8    1
    18     8     9    1
    19     9    10   ar
    20    10    11   ar
    21    11    12   ar
    22    12    15    1
    23    15    16   ar
    24    16    17   ar
    25    17    18   ar
    26    18    19   ar
    27    19    20   ar
    28    12    13   ar
    29    13    14   ar
    30    27    28   ar
    31    28    23   ar
    32     5     1   ar
    33    14     9   ar
    34    14     4    1
    35    20    15   ar
    36    21    22    1
@<TRIPOS>MOLECULE
*****
 32 36 0 0 0
SMALL
GASTEIGER

@<TRIPOS>ATOM
      1 C         141.3541  142.9607  164.2107 C.ar    1  UNL1        0.2224
      2 N         142.3888  141.9972  163.7097 N.ar    1  UNL1       -0.1127
      3 N         142.6189  142.2793  162.2545 N.ar    1  UNL1       -0.1273
      4 C         141.7262  143.4172  161.8562 C.ar    1  UNL1        0.1704
      5 N         140.9446  143.8382  163.0653 N.ar    1  UNL1       -0.2796
      6 C         139.9220  144.9291  163.1845 C.3     1  UNL1        0.1574
      7 C         139.4285  145.8684  162.1242 C.3     1  UNL1        0.2299
      8 O         139.8358  145.9487  160.6828 O.3     1  UNL1       -0.4733
      9 C         140.8371  145.1096  159.9456 C.ar    1  UNL1        0.1415
     10 C         140.9444  145.5216  158.5073 C.ar    1  UNL1        0.0370
     11 C         141.8931  144.8070  157.5913 C.ar    1  UNL1        0.0031
     12 C         142.7345  143.6803  158.1135 C.ar    1  UNL1        0.0004
     13 C         142.6271  143.2683  159.5518 C.ar    1  UNL1        0.0061
     14 C         141.6784  143.9830  160.4678 C.ar    1  UNL1        0.0699
     15 C         143.6833  142.9656  157.1974 C.ar    1  UNL1        0.0031
     16 C         143.3309  142.7770  155.7517 C.ar    1  UNL1        0.0207
     17 C         144.2797  142.0623  154.8356 C.ar    1  UNL1        0.0989
     18 N         145.5808  141.5363  155.3653 N.ar    1  UNL1       -0.2423
     19 C         145.9331  141.7251  156.8111 C.ar    1  UNL1        0.0989
     20 C         144.9843  142.4397  157.7272 C.ar    1  UNL1        0.0207
     21 N         140.8222  143.0337  165.6114 N.pl3   1  UNL1       -0.2826
     22 H         140.9183  143.8639  166.1317 H       1  UNL1        0.1551
     23 C         139.6269  140.3605  168.2899 C.ar    1  UNL1        0.0726
     24 C         138.7875  139.4581  167.4348 C.ar    1  UNL1        0.0039
     25 C         138.6264  139.7477  165.9719 C.ar    1  UNL1        0.0012
     26 C         139.3046  140.9395  165.3641 C.ar    1  UNL1        0.0147
     27 C         140.1440  141.8419  166.2192 C.ar    1  UNL1        0.0504
     28 C         140.3051  141.5523  167.6821 C.ar    1  UNL1        0.0185
     29 F         139.9491  139.7814  171.2158 F       1  UNL1       -0.1659
     30 C         139.7880  140.0709  169.7529 C.3     1  UNL1        0.4186
     31 F         141.1199  139.4370  169.4808 F       1  UNL1       -0.1659
     32 F         138.4560  140.7049  170.0250 F       1  UNL1       -0.1659
@<TRIPOS>BOND
     1    29    30    1
     2    30    31    1
     3    30    32    1
     4    30    23    1
     5    23    24   ar
     6    24    25   ar
     7    25    26   ar
     8    26    27   ar
     9    27    21    1
    10    21     1    1
    11     1     2   ar
    12     2     3   ar
    13     3     4   ar
    14     4     5   ar
    15     5     6    1
    16     6     7    1
    17     7     8    1
    18     8     9    1
    19     9    10   ar
    20    10    11   ar
    21    11    12   ar
    22    12    15    1
    23    15    16   ar
    24    16    17   ar
    25    17    18   ar
    26    18    19   ar
    27    19    20   ar
    28    12    13   ar
    29    13    14   ar
    30    27    28   ar
    31    28    23   ar
    32     5     1   ar
    33    14     9   ar
    34    14     4    1
    35    20    15   ar
    36    21    22    1
