@<TRIPOS>MOLECULE
*****
 41 45 0 0 0
SMALL
GASTEIGER

@<TRIPOS>ATOM
      1 C         141.3865  143.5996  158.1299 C.2     1  UNL1        0.2458
      2 O         142.7522  143.9872  157.6457 O.2     1  UNL1       -0.2701
      3 N         140.2308  143.5751  157.1740 N.am    1  UNL1       -0.3009
      4 H         139.3344  143.3207  157.4919 H       1  UNL1        0.1497
      5 C         140.7566  142.5103  162.4504 C.ar    1  UNL1        0.0536
      6 C         141.8890  141.8985  161.6801 C.ar    1  UNL1        0.0048
      7 C         142.0990  142.2616  160.2399 C.ar    1  UNL1        0.0047
      8 C         141.1765  143.2365  159.5701 C.ar    1  UNL1        0.0534
      9 C         140.0441  143.8483  160.3404 C.ar    1  UNL1        0.0047
     10 C         139.8342  143.4852  161.7806 C.ar    1  UNL1        0.0048
     11 C         139.3061  140.0358  166.9345 C.ar    1  UNL1        0.0143
     12 C         139.4920  140.3405  168.3914 C.ar    1  UNL1        0.0091
     13 C         140.2276  141.5785  168.8109 C.ar    1  UNL1        0.0698
     14 C         140.7773  142.5121  167.7734 C.ar    1  UNL1        0.0326
     15 C         140.5913  142.2075  166.3164 C.ar    1  UNL1        0.1192
     16 N         141.0184  142.9355  165.0764 N.ar    1  UNL1       -0.2082
     17 C         140.5467  142.1472  163.8906 C.ar    1  UNL1        0.2296
     18 O         139.8281  140.9321  164.3978 O.2     1  UNL1       -0.4349
     19 C         139.8557  140.9693  165.8970 C.ar    1  UNL1        0.1607
     20 C         139.0334  138.0190  165.3196 C.3     1  UNL1        0.0048
     21 C         138.5705  138.7977  166.5151 C.3     1  UNL1        0.0254
     22 C         137.3719  138.3382  167.2914 C.3     1  UNL1        0.0048
     23 C         140.4135  141.8832  170.2679 C.1     1  UNL1        0.1005
     24 N         140.5995  142.1878  171.7248 N.1     1  UNL1       -0.1908
     25 C         140.4408  143.9382  155.7339 C.3     1  UNL1        0.0896
     26 C         140.2160  145.3486  155.2755 C.3     1  UNL1        0.0196
     27 C         139.3560  146.2725  156.0859 C.3     1  UNL1        0.0020
     28 C         139.1312  147.6830  155.6276 C.3     1  UNL1        0.0044
     29 C         139.7666  148.1696  154.3589 C.3     1  UNL1        0.0223
     30 C         140.6267  147.2456  153.5485 C.3     1  UNL1        0.0044
     31 C         140.8514  145.8351  154.0068 C.3     1  UNL1        0.0020
     32 C         139.5418  149.5800  153.9005 C.ar    1  UNL1       -0.0226
     33 C         139.6883  149.9294  152.4492 C.ar    1  UNL1       -0.0043
     34 C         139.4636  151.3399  151.9908 C.ar    1  UNL1       -0.0004
     35 C         139.0923  152.4010  152.9840 C.ar    1  UNL1        0.0038
     36 C         138.9458  152.0516  154.4353 C.ar    1  UNL1        0.0711
     37 C         139.1706  150.6411  154.8936 C.ar    1  UNL1       -0.0004
     38 C         138.5746  153.1128  155.4283 C.3     1  UNL1        0.4186
     39 F         138.2033  154.1739  156.4214 F       1  UNL1       -0.1659
     40 F         138.2134  154.0382  154.3044 F       1  UNL1       -0.1659
     41 F         138.9357  152.1873  156.5523 F       1  UNL1       -0.1659
@<TRIPOS>BOND
     1    20    21    1
     2    21    22    1
     3    21    11    1
     4    11    12   ar
     5    12    13   ar
     6    13    23    1
     7    23    24    3
     8    13    14   ar
     9    14    15   ar
    10    15    16   ar
    11    16    17   ar
    12    17     5    1
    13     5     6   ar
    14     6     7   ar
    15     7     8   ar
    16     8     1    1
    17     1     2    2
    18     1     3   am
    19     3    25    1
    20    26    25    1
    21    26    27    1
    22    27    28    1
    23    28    29    1
    24    29    32    1
    25    32    33   ar
    26    33    34   ar
    27    34    35   ar
    28    35    36   ar
    29    36    38    1
    30    38    39    1
    31    38    40    1
    32    38    41    1
    33    36    37   ar
    34    29    30    1
    35    30    31    1
    36     8     9   ar
    37     9    10   ar
    38    17    18   ar
    39    18    19   ar
    40    19    11   ar
    41    19    15   ar
    42    10     5   ar
    43    31    26    1
    44    37    32   ar
    45     3     4    1
@<TRIPOS>MOLECULE
*****
 41 45 0 0 0
SMALL
GASTEIGER

@<TRIPOS>ATOM
      1 C         141.9690  137.7265  157.4200 C.2     1  UNL1        0.2458
      2 O         140.8223  137.2885  156.5580 O.2     1  UNL1       -0.2701
      3 N         143.3756  137.6142  156.9110 N.am    1  UNL1       -0.3009
      4 H         144.1282  137.9017  157.4768 H       1  UNL1        0.1497
      5 C         141.1896  139.3771  161.5332 C.ar    1  UNL1        0.0536
      6 C         142.4224  138.5632  161.2729 C.ar    1  UNL1        0.0048
      7 C         142.6822  138.0130  159.9018 C.ar    1  UNL1        0.0047
      8 C         141.7092  138.2767  158.7910 C.ar    1  UNL1        0.0534
      9 C         140.4764  139.0906  159.0513 C.ar    1  UNL1        0.0047
     10 C         140.2167  139.6408  160.4224 C.ar    1  UNL1        0.0048
     11 C         140.1572  142.6261  165.6213 C.ar    1  UNL1        0.0143
     12 C         140.0060  142.4149  167.0986 C.ar    1  UNL1        0.0091
     13 C         140.1537  141.0395  167.6786 C.ar    1  UNL1        0.0698
     14 C         140.4526  139.8752  166.7813 C.ar    1  UNL1        0.0326
     15 C         140.6038  140.0864  165.3039 C.ar    1  UNL1        0.1192
     16 N         140.8965  139.1380  164.1793 N.ar    1  UNL1       -0.2082
     17 C         140.9298  139.9274  162.9042 C.ar    1  UNL1        0.2296
     18 O         140.6576  141.3635  163.2408 O.2     1  UNL1       -0.4349
     19 C         140.4561  141.4618  164.7240 C.ar    1  UNL1        0.1607
     20 C         138.7629  144.7946  165.2998 C.3     1  UNL1        0.0048
     21 C         140.0096  144.0015  165.0413 C.3     1  UNL1        0.0254
     22 C         141.1086  144.5839  164.2028 C.3     1  UNL1        0.0048
     23 C         140.0025  140.8283  169.1560 C.1     1  UNL1        0.1005
     24 N         139.8513  140.6171  170.6333 N.1     1  UNL1       -0.1908
     25 C         143.6354  137.0640  155.5400 C.3     1  UNL1        0.0896
     26 C         143.3789  135.6143  155.2526 C.3     1  UNL1        0.0196
     27 C         143.9524  134.5588  156.1508 C.3     1  UNL1        0.0020
     28 C         143.6959  133.1091  155.8635 C.3     1  UNL1        0.0044
     29 C         142.8658  132.7150  154.6778 C.3     1  UNL1        0.0223
     30 C         142.2923  133.7706  153.7796 C.3     1  UNL1        0.0044
     31 C         142.5488  135.2203  154.0669 C.3     1  UNL1        0.0020
     32 C         142.6093  131.2653  154.3905 C.ar    1  UNL1       -0.0226
     33 C         143.5773  130.4841  153.5522 C.ar    1  UNL1       -0.0043
     34 C         143.3208  129.0344  153.2649 C.ar    1  UNL1       -0.0004
     35 C         142.0961  128.3659  153.8158 C.ar    1  UNL1        0.0038
     36 C         141.1281  129.1471  154.6540 C.ar    1  UNL1        0.0711
     37 C         141.3847  130.5968  154.9414 C.ar    1  UNL1       -0.0004
     38 C         139.9035  128.4786  155.2048 C.3     1  UNL1        0.4186
     39 F         138.6789  127.8100  155.7557 F       1  UNL1       -0.1659
     40 F         139.2289  129.8129  155.3245 F       1  UNL1       -0.1659
     41 F         140.5782  127.1442  155.0852 F       1  UNL1       -0.1659
@<TRIPOS>BOND
     1    20    21    1
     2    21    22    1
     3    21    11    1
     4    11    12   ar
     5    12    13   ar
     6    13    23    1
     7    23    24    3
     8    13    14   ar
     9    14    15   ar
    10    15    16   ar
    11    16    17   ar
    12    17     5    1
    13     5     6   ar
    14     6     7   ar
    15     7     8   ar
    16     8     1    1
    17     1     2    2
    18     1     3   am
    19     3    25    1
    20    26    25    1
    21    26    27    1
    22    27    28    1
    23    28    29    1
    24    29    32    1
    25    32    33   ar
    26    33    34   ar
    27    34    35   ar
    28    35    36   ar
    29    36    38    1
    30    38    39    1
    31    38    40    1
    32    38    41    1
    33    36    37   ar
    34    29    30    1
    35    30    31    1
    36     8     9   ar
    37     9    10   ar
    38    17    18   ar
    39    18    19   ar
    40    19    11   ar
    41    19    15   ar
    42    10     5   ar
    43    31    26    1
    44    37    32   ar
    45     3     4    1
@<TRIPOS>MOLECULE
*****
 41 45 0 0 0
SMALL
GASTEIGER

@<TRIPOS>ATOM
      1 C         142.8983  137.6757  157.7214 C.2     1  UNL1        0.2458
      2 O         143.6480  138.4025  156.6446 O.2     1  UNL1       -0.2701
      3 N         142.3937  136.2846  157.4760 N.am    1  UNL1       -0.3009
      4 H         141.9017  135.8076  158.1828 H       1  UNL1        0.1497
      5 C         142.1629  139.6687  161.6885 C.ar    1  UNL1        0.0536
      6 C         141.8869  140.4101  160.4141 C.ar    1  UNL1        0.0048
      7 C         142.1321  139.7457  159.0918 C.ar    1  UNL1        0.0047
      8 C         142.6532  138.3400  159.0438 C.ar    1  UNL1        0.0534
      9 C         142.9292  137.5986  160.3182 C.ar    1  UNL1        0.0047
     10 C         142.6840  138.2630  161.6405 C.ar    1  UNL1        0.0048
     11 C         140.1183  142.6124  165.6241 C.ar    1  UNL1        0.0143
     12 C         140.5110  142.8468  167.0526 C.ar    1  UNL1        0.0091
     13 C         141.7208  142.1650  167.6194 C.ar    1  UNL1        0.0698
     14 C         142.5381  141.2488  166.7577 C.ar    1  UNL1        0.0326
     15 C         142.1455  141.0144  165.3291 C.ar    1  UNL1        0.1192
     16 N         142.7525  140.1719  164.2467 N.ar    1  UNL1       -0.2082
     17 C         141.9178  140.3330  163.0109 C.ar    1  UNL1        0.2296
     18 O         140.7949  141.2751  163.3295 O.2     1  UNL1       -0.4349
     19 C         140.9356  141.6962  164.7623 C.ar    1  UNL1        0.1607
     20 C         137.8118  142.4814  164.4355 C.3     1  UNL1        0.0048
     21 C         138.9084  143.2943  165.0572 C.3     1  UNL1        0.0254
     22 C         138.7952  144.7891  165.1122 C.3     1  UNL1        0.0048
     23 C         142.1135  142.3994  169.0481 C.1     1  UNL1        0.1005
     24 N         142.5061  142.6338  170.4767 N.1     1  UNL1       -0.1908
     25 C         142.6389  135.6203  156.1536 C.3     1  UNL1        0.0896
     26 C         142.4466  134.1395  156.0111 C.3     1  UNL1        0.0196
     27 C         143.2893  133.1932  156.8138 C.3     1  UNL1        0.0020
     28 C         143.0971  131.7124  156.6713 C.3     1  UNL1        0.0044
     29 C         142.0622  131.1780  155.7261 C.3     1  UNL1        0.0223
     30 C         141.2194  132.1244  154.9234 C.3     1  UNL1        0.0044
     31 C         141.4116  133.6052  155.0659 C.3     1  UNL1        0.0020
     32 C         141.8700  129.6972  155.5836 C.ar    1  UNL1       -0.0226
     33 C         143.0525  128.7771  155.6541 C.ar    1  UNL1       -0.0043
     34 C         142.8603  127.2963  155.5116 C.ar    1  UNL1       -0.0004
     35 C         141.4854  126.7356  155.2986 C.ar    1  UNL1        0.0038
     36 C         140.3028  127.6557  155.2281 C.ar    1  UNL1        0.0711
     37 C         140.4950  129.1365  155.3706 C.ar    1  UNL1       -0.0004
     38 C         138.9280  127.0949  155.0151 C.3     1  UNL1        0.4186
     39 F         137.5531  126.5342  154.8021 F       1  UNL1       -0.1659
     40 F         138.5610  127.4599  156.4230 F       1  UNL1       -0.1659
     41 F         139.2950  126.7299  153.6072 F       1  UNL1       -0.1659
@<TRIPOS>BOND
     1    20    21    1
     2    21    22    1
     3    21    11    1
     4    11    12   ar
     5    12    13   ar
     6    13    23    1
     7    23    24    3
     8    13    14   ar
     9    14    15   ar
    10    15    16   ar
    11    16    17   ar
    12    17     5    1
    13     5     6   ar
    14     6     7   ar
    15     7     8   ar
    16     8     1    1
    17     1     2    2
    18     1     3   am
    19     3    25    1
    20    26    25    1
    21    26    27    1
    22    27    28    1
    23    28    29    1
    24    29    32    1
    25    32    33   ar
    26    33    34   ar
    27    34    35   ar
    28    35    36   ar
    29    36    38    1
    30    38    39    1
    31    38    40    1
    32    38    41    1
    33    36    37   ar
    34    29    30    1
    35    30    31    1
    36     8     9   ar
    37     9    10   ar
    38    17    18   ar
    39    18    19   ar
    40    19    11   ar
    41    19    15   ar
    42    10     5   ar
    43    31    26    1
    44    37    32   ar
    45     3     4    1
@<TRIPOS>MOLECULE
*****
 41 45 0 0 0
SMALL
GASTEIGER

@<TRIPOS>ATOM
      1 C         142.2065  140.6471  159.6126 C.2     1  UNL1        0.2458
      2 O         143.1718  141.7758  159.4026 O.2     1  UNL1       -0.2701
      3 N         141.0418  140.8194  160.5421 N.am    1  UNL1       -0.3009
      4 H         140.4083  140.0785  160.6799 H       1  UNL1        0.1497
      5 C         142.8046  136.7441  157.4542 C.ar    1  UNL1        0.0536
      6 C         142.9463  136.8054  158.9462 C.ar    1  UNL1        0.0048
      7 C         142.7469  138.1065  159.6656 C.ar    1  UNL1        0.0047
      8 C         142.4058  139.3461  158.8931 C.ar    1  UNL1        0.0534
      9 C         142.2641  139.2848  157.4011 C.ar    1  UNL1        0.0047
     10 C         142.4635  137.9838  156.6817 C.ar    1  UNL1        0.0048
     11 C         142.5517  132.7709  153.9209 C.ar    1  UNL1        0.0143
     12 C         143.1901  131.4160  153.8395 C.ar    1  UNL1        0.0091
     13 C         144.1217  130.9596  154.9228 C.ar    1  UNL1        0.0698
     14 C         144.4149  131.8580  156.0877 C.ar    1  UNL1        0.0326
     15 C         143.7765  133.2129  156.1691 C.ar    1  UNL1        0.1192
     16 N         143.8748  134.3092  157.1883 N.ar    1  UNL1       -0.2082
     17 C         143.0039  135.4431  156.7347 C.ar    1  UNL1        0.2296
     18 O         142.3674  135.0477  155.4352 O.2     1  UNL1       -0.4349
     19 C         142.8449  133.6693  155.0857 C.ar    1  UNL1        0.1607
     20 C         140.5873  132.2868  152.2909 C.3     1  UNL1        0.0048
     21 C         141.6201  133.2273  152.8375 C.3     1  UNL1        0.0254
     22 C         141.7212  134.6244  152.3006 C.3     1  UNL1        0.0048
     23 C         144.7602  129.6046  154.8414 C.1     1  UNL1        0.1005
     24 N         145.3986  128.2497  154.7600 N.1     1  UNL1       -0.1908
     25 C         140.8425  142.1204  161.2616 C.3     1  UNL1        0.0896
     26 C         141.0972  142.2081  162.7372 C.3     1  UNL1        0.0196
     27 C         140.2417  141.4311  163.6934 C.3     1  UNL1        0.0020
     28 C         140.4965  141.5188  165.1690 C.3     1  UNL1        0.0044
     29 C         141.6068  142.3835  165.6884 C.3     1  UNL1        0.0223
     30 C         142.4623  143.1605  164.7320 C.3     1  UNL1        0.0044
     31 C         142.2075  143.0728  163.2565 C.3     1  UNL1        0.0020
     32 C         141.8615  142.4712  167.1640 C.ar    1  UNL1       -0.0226
     33 C         143.2358  142.2087  167.7048 C.ar    1  UNL1       -0.0043
     34 C         143.4905  142.2964  169.1803 C.ar    1  UNL1       -0.0004
     35 C         142.3709  142.6466  170.1152 C.ar    1  UNL1        0.0038
     36 C         140.9967  142.9091  169.5744 C.ar    1  UNL1        0.0711
     37 C         140.7419  142.8214  168.0988 C.ar    1  UNL1       -0.0004
     38 C         139.8771  143.2593  170.5093 C.3     1  UNL1        0.4186
     39 F         138.7576  143.6095  171.4442 F       1  UNL1       -0.1659
     40 F         139.5949  141.8009  170.7176 F       1  UNL1       -0.1659
     41 F         140.1593  144.7177  170.3010 F       1  UNL1       -0.1659
@<TRIPOS>BOND
     1    20    21    1
     2    21    22    1
     3    21    11    1
     4    11    12   ar
     5    12    13   ar
     6    13    23    1
     7    23    24    3
     8    13    14   ar
     9    14    15   ar
    10    15    16   ar
    11    16    17   ar
    12    17     5    1
    13     5     6   ar
    14     6     7   ar
    15     7     8   ar
    16     8     1    1
    17     1     2    2
    18     1     3   am
    19     3    25    1
    20    26    25    1
    21    26    27    1
    22    27    28    1
    23    28    29    1
    24    29    32    1
    25    32    33   ar
    26    33    34   ar
    27    34    35   ar
    28    35    36   ar
    29    36    38    1
    30    38    39    1
    31    38    40    1
    32    38    41    1
    33    36    37   ar
    34    29    30    1
    35    30    31    1
    36     8     9   ar
    37     9    10   ar
    38    17    18   ar
    39    18    19   ar
    40    19    11   ar
    41    19    15   ar
    42    10     5   ar
    43    31    26    1
    44    37    32   ar
    45     3     4    1
@<TRIPOS>MOLECULE
*****
 41 45 0 0 0
SMALL
GASTEIGER

@<TRIPOS>ATOM
      1 C         141.6523  138.1718  158.4996 C.2     1  UNL1        0.2458
      2 O         140.3949  137.9898  157.7021 O.2     1  UNL1       -0.2701
      3 N         142.9798  137.8165  157.8984 N.am    1  UNL1       -0.3009
      4 H         143.8050  137.9359  158.4219 H       1  UNL1        0.1497
      5 C         141.4416  139.7841  162.6956 C.ar    1  UNL1        0.0536
      6 C         142.3581  138.6403  162.3768 C.ar    1  UNL1        0.0048
      7 C         142.4283  138.1029  160.9781 C.ar    1  UNL1        0.0047
      8 C         141.5820  138.7093  159.8982 C.ar    1  UNL1        0.0534
      9 C         140.6655  139.8531  160.2170 C.ar    1  UNL1        0.0047
     10 C         140.5953  140.3905  161.6157 C.ar    1  UNL1        0.0048
     11 C         141.9253  140.3997  167.9607 C.ar    1  UNL1        0.0143
     12 C         141.5031  141.4722  168.9205 C.ar    1  UNL1        0.0091
     13 C         140.7802  142.6865  168.4176 C.ar    1  UNL1        0.0698
     14 C         140.4796  142.8283  166.9549 C.ar    1  UNL1        0.0326
     15 C         140.9019  141.7557  165.9951 C.ar    1  UNL1        0.1192
     16 N         140.7452  141.6199  164.5095 N.ar    1  UNL1       -0.2082
     17 C         141.3713  140.3216  164.0942 C.ar    1  UNL1        0.2296
     18 O         141.9149  139.6550  165.3232 O.2     1  UNL1       -0.4349
     19 C         141.6247  140.5414  166.4980 C.ar    1  UNL1        0.1607
     20 C         142.5582  138.8051  169.9118 C.3     1  UNL1        0.0048
     21 C         142.6482  139.1854  168.4636 C.3     1  UNL1        0.0254
     22 C         143.4611  138.3512  167.5182 C.3     1  UNL1        0.0048
     23 C         140.3580  143.7591  169.3775 C.1     1  UNL1        0.1005
     24 N         139.9357  144.8317  170.3373 N.1     1  UNL1       -0.1908
     25 C         143.0500  137.2790  156.4998 C.3     1  UNL1        0.0896
     26 C         142.7045  135.8446  156.2292 C.3     1  UNL1        0.0196
     27 C         143.2760  134.7598  157.0932 C.3     1  UNL1        0.0020
     28 C         142.9306  133.3254  156.8226 C.3     1  UNL1        0.0044
     29 C         142.0136  132.9759  155.6882 C.3     1  UNL1        0.0223
     30 C         141.4420  134.0609  154.8242 C.3     1  UNL1        0.0044
     31 C         141.7875  135.4952  155.0947 C.3     1  UNL1        0.0020
     32 C         141.6681  131.5415  155.4176 C.ar    1  UNL1       -0.0226
     33 C         140.4226  131.2011  154.6542 C.ar    1  UNL1       -0.0043
     34 C         140.0771  129.7668  154.3837 C.ar    1  UNL1       -0.0004
     35 C         140.9772  128.6727  154.8766 C.ar    1  UNL1        0.0038
     36 C         142.2227  129.0131  155.6400 C.ar    1  UNL1        0.0711
     37 C         142.5682  130.4475  155.9106 C.ar    1  UNL1       -0.0004
     38 C         143.1228  127.9190  156.1329 C.3     1  UNL1        0.4186
     39 F         144.0228  126.8250  156.6258 F       1  UNL1       -0.1659
     40 F         141.9715  126.9580  156.1019 F       1  UNL1       -0.1659
     41 F         144.2740  128.8801  156.1639 F       1  UNL1       -0.1659
@<TRIPOS>BOND
     1    20    21    1
     2    21    22    1
     3    21    11    1
     4    11    12   ar
     5    12    13   ar
     6    13    23    1
     7    23    24    3
     8    13    14   ar
     9    14    15   ar
    10    15    16   ar
    11    16    17   ar
    12    17     5    1
    13     5     6   ar
    14     6     7   ar
    15     7     8   ar
    16     8     1    1
    17     1     2    2
    18     1     3   am
    19     3    25    1
    20    26    25    1
    21    26    27    1
    22    27    28    1
    23    28    29    1
    24    29    32    1
    25    32    33   ar
    26    33    34   ar
    27    34    35   ar
    28    35    36   ar
    29    36    38    1
    30    38    39    1
    31    38    40    1
    32    38    41    1
    33    36    37   ar
    34    29    30    1
    35    30    31    1
    36     8     9   ar
    37     9    10   ar
    38    17    18   ar
    39    18    19   ar
    40    19    11   ar
    41    19    15   ar
    42    10     5   ar
    43    31    26    1
    44    37    32   ar
    45     3     4    1
@<TRIPOS>MOLECULE
*****
 41 45 0 0 0
SMALL
GASTEIGER

@<TRIPOS>ATOM
      1 C         140.7238  145.0254  157.6798 C.2     1  UNL1        0.2458
      2 O         142.0324  145.5270  157.1454 O.2     1  UNL1       -0.2701
      3 N         139.5023  145.0415  156.8093 N.am    1  UNL1       -0.3009
      4 H         138.6434  144.7123  157.1601 H       1  UNL1        0.1497
      5 C         140.4620  143.4722  161.8952 C.ar    1  UNL1        0.0536
      6 C         140.7322  142.5263  160.7628 C.ar    1  UNL1        0.0048
      7 C         140.8195  143.0441  159.3577 C.ar    1  UNL1        0.0047
      8 C         140.6365  144.5077  159.0850 C.ar    1  UNL1        0.0534
      9 C         140.3663  145.4536  160.2173 C.ar    1  UNL1        0.0047
     10 C         140.2791  144.9358  161.6225 C.ar    1  UNL1        0.0048
     11 C         139.9423  140.3220  166.1544 C.ar    1  UNL1        0.0143
     12 C         139.9781  140.5673  167.6337 C.ar    1  UNL1        0.0091
     13 C         140.2007  141.9546  168.1587 C.ar    1  UNL1        0.0698
     14 C         140.3876  143.0967  167.2044 C.ar    1  UNL1        0.0326
     15 C         140.3518  142.8514  165.7250 C.ar    1  UNL1        0.1192
     16 N         140.5036  143.7726  164.5510 N.ar    1  UNL1       -0.2082
     17 C         140.3748  142.9545  163.3003 C.ar    1  UNL1        0.2296
     18 O         140.1434  141.5277  163.7014 O.2     1  UNL1       -0.4349
     19 C         140.1292  141.4640  165.2000 C.ar    1  UNL1        0.1607
     20 C         138.3893  138.2671  165.8147 C.3     1  UNL1        0.0048
     21 C         139.7197  138.9346  165.6294 C.3     1  UNL1        0.0254
     22 C         140.8276  138.2147  164.9190 C.3     1  UNL1        0.0048
     23 C         140.2364  142.1999  169.6382 C.1     1  UNL1        0.1005
     24 N         140.2722  142.4452  171.1175 N.1     1  UNL1       -0.1908
     25 C         139.5896  145.5593  155.4042 C.3     1  UNL1        0.0896
     26 C         139.5965  147.0373  155.1485 C.3     1  UNL1        0.0196
     27 C         140.3448  147.5915  153.9726 C.3     1  UNL1        0.0020
     28 C         140.3517  149.0695  153.7169 C.3     1  UNL1        0.0044
     29 C         139.6103  149.9933  154.6372 C.3     1  UNL1        0.0223
     30 C         138.8619  149.4390  155.8132 C.3     1  UNL1        0.0044
     31 C         138.8550  147.9610  156.0689 C.3     1  UNL1        0.0020
     32 C         139.6172  151.4714  154.3816 C.ar    1  UNL1       -0.0226
     33 C         140.6535  152.0715  153.4785 C.ar    1  UNL1       -0.0043
     34 C         140.6604  153.5496  153.2228 C.ar    1  UNL1       -0.0004
     35 C         139.6308  154.4274  153.8704 C.ar    1  UNL1        0.0038
     36 C         138.5945  153.8273  154.7735 C.ar    1  UNL1        0.0711
     37 C         138.5876  152.3493  155.0292 C.ar    1  UNL1       -0.0004
     38 C         137.5649  154.7052  155.4210 C.3     1  UNL1        0.4186
     39 F         136.5354  155.5832  156.0685 F       1  UNL1       -0.1659
     40 F         138.2065  154.4724  156.7568 F       1  UNL1       -0.1659
     41 F         136.9234  154.9380  154.0853 F       1  UNL1       -0.1659
@<TRIPOS>BOND
     1    20    21    1
     2    21    22    1
     3    21    11    1
     4    11    12   ar
     5    12    13   ar
     6    13    23    1
     7    23    24    3
     8    13    14   ar
     9    14    15   ar
    10    15    16   ar
    11    16    17   ar
    12    17     5    1
    13     5     6   ar
    14     6     7   ar
    15     7     8   ar
    16     8     1    1
    17     1     2    2
    18     1     3   am
    19     3    25    1
    20    26    25    1
    21    26    27    1
    22    27    28    1
    23    28    29    1
    24    29    32    1
    25    32    33   ar
    26    33    34   ar
    27    34    35   ar
    28    35    36   ar
    29    36    38    1
    30    38    39    1
    31    38    40    1
    32    38    41    1
    33    36    37   ar
    34    29    30    1
    35    30    31    1
    36     8     9   ar
    37     9    10   ar
    38    17    18   ar
    39    18    19   ar
    40    19    11   ar
    41    19    15   ar
    42    10     5   ar
    43    31    26    1
    44    37    32   ar
    45     3     4    1
@<TRIPOS>MOLECULE
*****
 41 45 0 0 0
SMALL
GASTEIGER

@<TRIPOS>ATOM
      1 C         140.4600  144.2458  157.6445 C.2     1  UNL1        0.2458
      2 O         141.7806  144.5825  157.0178 O.2     1  UNL1       -0.2701
      3 N         139.2017  144.3276  156.8322 N.am    1  UNL1       -0.3009
      4 H         138.3350  144.1066  157.2435 H       1  UNL1        0.1497
      5 C         140.2734  142.9900  161.9618 C.ar    1  UNL1        0.0536
      6 C         140.1395  141.9640  160.8758 C.ar    1  UNL1        0.0048
      7 C         140.2017  142.3827  159.4367 C.ar    1  UNL1        0.0047
      8 C         140.3978  143.8272  159.0836 C.ar    1  UNL1        0.0534
      9 C         140.5318  144.8532  160.1695 C.ar    1  UNL1        0.0047
     10 C         140.4696  144.4346  161.6086 C.ar    1  UNL1        0.0048
     11 C         139.5386  140.2212  166.4482 C.ar    1  UNL1        0.0143
     12 C         139.7463  140.5306  167.9011 C.ar    1  UNL1        0.0091
     13 C         140.2692  141.8742  168.3146 C.ar    1  UNL1        0.0698
     14 C         140.5846  142.9086  167.2750 C.ar    1  UNL1        0.0326
     15 C         140.3770  142.5992  165.8220 C.ar    1  UNL1        0.1192
     16 N         140.5978  143.4126  164.5812 N.ar    1  UNL1       -0.2082
     17 C         140.2112  142.5715  163.4008 C.ar    1  UNL1        0.2296
     18 O         139.7516  141.2384  163.9122 O.2     1  UNL1       -0.4349
     19 C         139.8540  141.2555  165.4086 C.ar    1  UNL1        0.1607
     20 C         137.7779  138.3245  166.6767 C.3     1  UNL1        0.0048
     21 C         139.0157  138.8775  166.0348 C.3     1  UNL1        0.0254
     22 C         139.7305  138.0867  164.9793 C.3     1  UNL1        0.0048
     23 C         140.4769  142.1836  169.7676 C.1     1  UNL1        0.1005
     24 N         140.6845  142.4930  171.2206 N.1     1  UNL1       -0.1908
     25 C         139.2639  144.7461  155.3931 C.3     1  UNL1        0.0896
     26 C         139.5236  146.1806  155.0397 C.3     1  UNL1        0.0196
     27 C         140.4785  146.5195  153.9337 C.3     1  UNL1        0.0020
     28 C         140.7383  147.9539  153.5804 C.3     1  UNL1        0.0044
     29 C         140.0431  149.0495  154.3331 C.3     1  UNL1        0.0223
     30 C         139.0882  148.7106  155.4392 C.3     1  UNL1        0.0044
     31 C         138.8284  147.2761  155.7925 C.3     1  UNL1        0.0020
     32 C         140.3028  150.4840  153.9797 C.ar    1  UNL1       -0.0226
     33 C         139.2050  151.3235  153.3969 C.ar    1  UNL1       -0.0043
     34 C         139.4647  152.7579  153.0435 C.ar    1  UNL1       -0.0004
     35 C         140.8224  153.3529  153.2731 C.ar    1  UNL1        0.0038
     36 C         141.9203  152.5133  153.8560 C.ar    1  UNL1        0.0711
     37 C         141.6606  151.0789  154.2093 C.ar    1  UNL1       -0.0004
     38 C         143.2780  153.1083  154.0855 C.3     1  UNL1        0.4186
     39 F         144.6357  153.7033  154.3151 F       1  UNL1       -0.1659
     40 F         143.8137  151.7514  154.4344 F       1  UNL1       -0.1659
     41 F         142.7423  154.4653  153.7367 F       1  UNL1       -0.1659
@<TRIPOS>BOND
     1    20    21    1
     2    21    22    1
     3    21    11    1
     4    11    12   ar
     5    12    13   ar
     6    13    23    1
     7    23    24    3
     8    13    14   ar
     9    14    15   ar
    10    15    16   ar
    11    16    17   ar
    12    17     5    1
    13     5     6   ar
    14     6     7   ar
    15     7     8   ar
    16     8     1    1
    17     1     2    2
    18     1     3   am
    19     3    25    1
    20    26    25    1
    21    26    27    1
    22    27    28    1
    23    28    29    1
    24    29    32    1
    25    32    33   ar
    26    33    34   ar
    27    34    35   ar
    28    35    36   ar
    29    36    38    1
    30    38    39    1
    31    38    40    1
    32    38    41    1
    33    36    37   ar
    34    29    30    1
    35    30    31    1
    36     8     9   ar
    37     9    10   ar
    38    17    18   ar
    39    18    19   ar
    40    19    11   ar
    41    19    15   ar
    42    10     5   ar
    43    31    26    1
    44    37    32   ar
    45     3     4    1
@<TRIPOS>MOLECULE
*****
 41 45 0 0 0
SMALL
GASTEIGER

@<TRIPOS>ATOM
      1 C         138.5461  141.1820  160.8519 C.2     1  UNL1        0.2458
      2 O         137.3928  141.4233  161.7800 O.2     1  UNL1       -0.2701
      3 N         139.4003  139.9603  161.0187 N.am    1  UNL1       -0.3009
      4 H         140.1572  139.8019  160.4095 H       1  UNL1        0.1497
      5 C         139.4438  144.1234  157.5666 C.ar    1  UNL1        0.0536
      6 C         139.9762  144.3577  158.9492 C.ar    1  UNL1        0.0048
      7 C         139.6769  143.3772  160.0443 C.ar    1  UNL1        0.0047
      8 C         138.8453  142.1624  159.7568 C.ar    1  UNL1        0.0534
      9 C         138.3130  141.9280  158.3742 C.ar    1  UNL1        0.0047
     10 C         138.6122  142.9086  157.2791 C.ar    1  UNL1        0.0048
     11 C         141.3583  146.4539  153.1805 C.ar    1  UNL1        0.0143
     12 C         141.1696  147.8068  152.5609 C.ar    1  UNL1        0.0091
     13 C         140.2739  148.8144  153.2183 C.ar    1  UNL1        0.0698
     14 C         139.5669  148.4693  154.4955 C.ar    1  UNL1        0.0326
     15 C         139.7556  147.1163  155.1151 C.ar    1  UNL1        0.1192
     16 N         139.1942  146.4953  156.3598 N.ar    1  UNL1       -0.2082
     17 C         139.7430  145.1038  156.4715 C.ar    1  UNL1        0.2296
     18 O         140.6436  144.8648  155.2960 O.2     1  UNL1       -0.4349
     19 C         140.6513  146.1087  154.4576 C.ar    1  UNL1        0.1607
     20 C         143.7177  145.7338  152.3651 C.3     1  UNL1        0.0048
     21 C         142.2540  145.4462  152.5231 C.3     1  UNL1        0.0254
     22 C         141.6861  144.1508  152.0235 C.3     1  UNL1        0.0048
     23 C         140.0852  150.1674  152.5986 C.1     1  UNL1        0.1005
     24 N         139.8965  151.5204  151.9790 N.1     1  UNL1       -0.1908
     25 C         139.1011  138.9798  162.1138 C.3     1  UNL1        0.0896
     26 C         139.3671  139.3479  163.5434 C.3     1  UNL1        0.0196
     27 C         140.5205  140.2440  163.8850 C.3     1  UNL1        0.0020
     28 C         140.7865  140.6121  165.3146 C.3     1  UNL1        0.0044
     29 C         139.8991  140.0842  166.4026 C.3     1  UNL1        0.0223
     30 C         138.7456  139.1880  166.0610 C.3     1  UNL1        0.0044
     31 C         138.4796  138.8199  164.6314 C.3     1  UNL1        0.0020
     32 C         140.1651  140.4523  167.8322 C.ar    1  UNL1       -0.0226
     33 C         139.1897  140.0594  168.9018 C.ar    1  UNL1       -0.0043
     34 C         139.4557  140.4275  170.3314 C.ar    1  UNL1       -0.0004
     35 C         140.6972  141.1886  170.6913 C.ar    1  UNL1        0.0038
     36 C         141.6726  141.5814  169.6216 C.ar    1  UNL1        0.0711
     37 C         141.4066  141.2133  168.1921 C.ar    1  UNL1       -0.0004
     38 C         142.9141  142.3425  169.9816 C.3     1  UNL1        0.4186
     39 F         144.1556  143.1035  170.3416 F       1  UNL1       -0.1659
     40 F         142.0978  143.5875  170.1648 F       1  UNL1       -0.1659
     41 F         143.7304  141.0975  169.7985 F       1  UNL1       -0.1659
@<TRIPOS>BOND
     1    20    21    1
     2    21    22    1
     3    21    11    1
     4    11    12   ar
     5    12    13   ar
     6    13    23    1
     7    23    24    3
     8    13    14   ar
     9    14    15   ar
    10    15    16   ar
    11    16    17   ar
    12    17     5    1
    13     5     6   ar
    14     6     7   ar
    15     7     8   ar
    16     8     1    1
    17     1     2    2
    18     1     3   am
    19     3    25    1
    20    26    25    1
    21    26    27    1
    22    27    28    1
    23    28    29    1
    24    29    32    1
    25    32    33   ar
    26    33    34   ar
    27    34    35   ar
    28    35    36   ar
    29    36    38    1
    30    38    39    1
    31    38    40    1
    32    38    41    1
    33    36    37   ar
    34    29    30    1
    35    30    31    1
    36     8     9   ar
    37     9    10   ar
    38    17    18   ar
    39    18    19   ar
    40    19    11   ar
    41    19    15   ar
    42    10     5   ar
    43    31    26    1
    44    37    32   ar
    45     3     4    1
@<TRIPOS>MOLECULE
*****
 41 45 0 0 0
SMALL
GASTEIGER

@<TRIPOS>ATOM
      1 C         144.7507  141.2705  157.2396 C.2     1  UNL1        0.2458
      2 O         144.8993  139.8942  156.6620 O.2     1  UNL1       -0.2701
      3 N         145.0974  142.4726  156.4121 N.am    1  UNL1       -0.3009
      4 H         144.9999  143.3759  156.7912 H       1  UNL1        0.1497
      5 C         143.2648  141.7932  161.4549 C.ar    1  UNL1        0.0536
      6 C         143.7423  142.9823  160.6752 C.ar    1  UNL1        0.0048
      7 C         144.2376  142.8080  159.2700 C.ar    1  UNL1        0.0047
      8 C         144.2554  141.4447  158.6447 C.ar    1  UNL1        0.0534
      9 C         143.7778  140.2556  159.4244 C.ar    1  UNL1        0.0047
     10 C         143.2825  140.4299  160.8296 C.ar    1  UNL1        0.0048
     11 C         140.2768  142.9164  165.7146 C.ar    1  UNL1        0.0143
     12 C         140.4986  142.8023  167.1936 C.ar    1  UNL1        0.0091
     13 C         141.8000  142.2723  167.7182 C.ar    1  UNL1        0.0698
     14 C         142.8798  141.8563  166.7636 C.ar    1  UNL1        0.0326
     15 C         142.6580  141.9705  165.2845 C.ar    1  UNL1        0.1192
     16 N         143.5313  141.6410  164.1103 N.ar    1  UNL1       -0.2082
     17 C         142.7695  141.9674  162.8600 C.ar    1  UNL1        0.2296
     18 O         141.4254  142.4987  163.2615 O.2     1  UNL1       -0.4349
     19 C         141.3565  142.5005  164.7600 C.ar    1  UNL1        0.1607
     20 C         138.0307  142.5333  164.4663 C.3     1  UNL1        0.0048
     21 C         138.9753  143.4465  165.1900 C.3     1  UNL1        0.0254
     22 C         138.6183  144.8898  165.3893 C.3     1  UNL1        0.0048
     23 C         142.0218  142.1581  169.1973 C.1     1  UNL1        0.1005
     24 N         142.2436  142.0440  170.6764 N.1     1  UNL1       -0.1908
     25 C         145.5927  142.2984  155.0070 C.3     1  UNL1        0.0896
     26 C         147.0652  142.3242  154.7222 C.3     1  UNL1        0.0196
     27 C         147.5668  142.8609  153.4144 C.3     1  UNL1        0.0020
     28 C         149.0393  142.8867  153.1296 C.3     1  UNL1        0.0044
     29 C         150.0101  142.3758  154.1525 C.3     1  UNL1        0.0223
     30 C         149.5084  141.8390  155.4604 C.3     1  UNL1        0.0044
     31 C         148.0360  141.8132  155.7452 C.3     1  UNL1        0.0020
     32 C         151.4826  142.4016  153.8677 C.ar    1  UNL1       -0.0226
     33 C         152.1949  141.1381  153.4854 C.ar    1  UNL1       -0.0043
     34 C         153.6673  141.1639  153.2006 C.ar    1  UNL1       -0.0004
     35 C         154.4276  142.4533  153.2981 C.ar    1  UNL1        0.0038
     36 C         153.7153  143.7168  153.6805 C.ar    1  UNL1        0.0711
     37 C         152.2428  143.6910  153.9653 C.ar    1  UNL1       -0.0004
     38 C         154.4756  145.0062  153.7780 C.3     1  UNL1        0.4186
     39 F         155.2359  146.2955  153.8755 F       1  UNL1       -0.1659
     40 F         153.4189  145.5605  154.6869 F       1  UNL1       -0.1659
     41 F         155.5323  144.4518  152.8690 F       1  UNL1       -0.1659
@<TRIPOS>BOND
     1    20    21    1
     2    21    22    1
     3    21    11    1
     4    11    12   ar
     5    12    13   ar
     6    13    23    1
     7    23    24    3
     8    13    14   ar
     9    14    15   ar
    10    15    16   ar
    11    16    17   ar
    12    17     5    1
    13     5     6   ar
    14     6     7   ar
    15     7     8   ar
    16     8     1    1
    17     1     2    2
    18     1     3   am
    19     3    25    1
    20    26    25    1
    21    26    27    1
    22    27    28    1
    23    28    29    1
    24    29    32    1
    25    32    33   ar
    26    33    34   ar
    27    34    35   ar
    28    35    36   ar
    29    36    38    1
    30    38    39    1
    31    38    40    1
    32    38    41    1
    33    36    37   ar
    34    29    30    1
    35    30    31    1
    36     8     9   ar
    37     9    10   ar
    38    17    18   ar
    39    18    19   ar
    40    19    11   ar
    41    19    15   ar
    42    10     5   ar
    43    31    26    1
    44    37    32   ar
    45     3     4    1
