@<TRIPOS>MOLECULE
*****
 29 32 0 0 0
SMALL
GASTEIGER

@<TRIPOS>ATOM
      1 C         138.8937  139.4052  167.6089 C.ar    1  UNL1        0.1321
      2 N         138.2308  139.6118  168.9385 N.ar    1  UNL1       -0.2290
      3 C         138.8871  140.4707  169.9783 C.ar    1  UNL1        0.1053
      4 C         140.2064  141.1231  169.6886 C.ar    1  UNL1        0.0783
      5 C         140.8693  140.9165  168.3590 C.ar    1  UNL1        0.0380
      6 S         142.1605  141.4268  167.7912 S.2     1  UNL1       -0.0866
      7 C         142.3022  140.8831  166.4004 C.ar    1  UNL1        0.0296
      8 C         141.0985  140.0369  166.1086 C.ar    1  UNL1        0.0098
      9 C         140.2130  140.0575  167.3191 C.ar    1  UNL1        0.0383
     10 C         143.4466  141.1405  165.4654 C.ar    1  UNL1        0.0060
     11 C         144.0844  140.0000  164.7289 C.ar    1  UNL1        0.0005
     12 C         145.2288  140.2575  163.7940 C.ar    1  UNL1        0.0000
     13 C         145.7354  141.6554  163.5955 C.ar    1  UNL1        0.0000
     14 C         145.0975  142.7958  164.3320 C.ar    1  UNL1        0.0000
     15 C         143.9531  142.5384  165.2670 C.ar    1  UNL1        0.0005
     16 C         140.8628  141.9821  170.7286 C.2     1  UNL1        0.2448
     17 N         140.7322  143.4748  170.6598 N.am    1  UNL1       -0.3253
     18 O         141.6496  141.3483  171.8372 O.2     1  UNL1       -0.2703
     19 H         140.2157  143.8908  169.9321 H       1  UNL1        0.1453
     20 H         141.1629  144.0386  171.3423 H       1  UNL1        0.1453
     21 C         137.3987  137.3740  166.9847 C.3     1  UNL1        0.1135
     22 N         138.2373  138.5462  166.5690 N.pl3   1  UNL1       -0.2917
     23 C         138.4196  138.8593  165.1133 C.3     1  UNL1        0.0899
     24 C         139.0158  137.8345  164.1946 C.3     1  UNL1        0.0226
     25 C         139.1981  138.1476  162.7391 C.3     1  UNL1        0.0188
     26 C         138.7841  139.4857  162.2022 C.3     1  UNL1        0.0687
     27 N         138.1879  140.5106  163.1210 N.3     1  UNL1       -0.2961
     28 C         138.0056  140.1974  164.5766 C.3     1  UNL1        0.0886
     29 H         137.2648  140.7366  162.7505 H       1  UNL1        0.1233
@<TRIPOS>BOND
     1    21    22    1
     2    22     1    1
     3     1     2   ar
     4     2     3   ar
     5     3     4   ar
     6     4    16    1
     7    16    17   am
     8    16    18    2
     9     4     5   ar
    10     5     6   ar
    11     6     7   ar
    12     7    10    1
    13    10    11   ar
    14    11    12   ar
    15    12    13   ar
    16    13    14   ar
    17    14    15   ar
    18     7     8   ar
    19     8     9   ar
    20    23    22    1
    21    23    24    1
    22    24    25    1
    23    25    26    1
    24    26    27    1
    25    27    28    1
    26     9     1   ar
    27    28    23    1
    28     9     5   ar
    29    15    10   ar
    30    17    19    1
    31    17    20    1
    32    27    29    1
@<TRIPOS>MOLECULE
*****
 29 32 0 0 0
SMALL
GASTEIGER

@<TRIPOS>ATOM
      1 C         142.7304  139.2384  167.4396 C.ar    1  UNL1        0.1321
      2 N         142.7865  138.7917  168.8704 N.ar    1  UNL1       -0.2290
      3 C         142.1452  139.6232  169.9414 C.ar    1  UNL1        0.1053
      4 C         141.4477  140.9016  169.5817 C.ar    1  UNL1        0.0783
      5 C         141.3915  141.3483  168.1508 C.ar    1  UNL1        0.0380
      6 S         140.7794  142.5525  167.4987 S.2     1  UNL1       -0.0866
      7 C         141.0425  142.4651  166.0245 C.ar    1  UNL1        0.0296
      8 C         141.8172  141.2069  165.7656 C.ar    1  UNL1        0.0098
      9 C         142.0328  140.5167  167.0798 C.ar    1  UNL1        0.0383
     10 C         140.6074  143.4610  164.9907 C.ar    1  UNL1        0.0060
     11 C         139.1467  143.6951  164.7428 C.ar    1  UNL1        0.0005
     12 C         138.7116  144.6910  163.7089 C.ar    1  UNL1        0.0000
     13 C         139.7372  145.4529  162.9230 C.ar    1  UNL1        0.0000
     14 C         141.1979  145.2188  163.1709 C.ar    1  UNL1        0.0000
     15 C         141.6330  144.2229  164.2047 C.ar    1  UNL1        0.0005
     16 C         140.8063  141.7331  170.6528 C.2     1  UNL1        0.2448
     17 N         139.3229  141.9550  170.6427 N.am    1  UNL1       -0.3253
     18 O         141.6485  142.3428  171.7340 O.2     1  UNL1       -0.2703
     19 H         138.7702  141.5548  169.9331 H       1  UNL1        0.1453
     20 H         138.9020  142.5007  171.3457 H       1  UNL1        0.1453
     21 C         144.6887  137.7369  166.6269 C.3     1  UNL1        0.1135
     22 N         143.3717  138.4068  166.3685 N.pl3   1  UNL1       -0.2917
     23 C         142.6960  138.2451  165.0390 C.3     1  UNL1        0.0899
     24 C         141.3635  137.5619  164.9531 C.3     1  UNL1        0.0226
     25 C         140.6878  137.4002  163.6238 C.3     1  UNL1        0.0188
     26 C         141.3448  137.9218  162.3802 C.3     1  UNL1        0.0687
     27 N         142.6773  138.6051  162.4661 N.3     1  UNL1       -0.2961
     28 C         143.3530  138.7668  163.7956 C.3     1  UNL1        0.0886
     29 H         142.5530  139.5422  162.0831 H       1  UNL1        0.1233
@<TRIPOS>BOND
     1    21    22    1
     2    22     1    1
     3     1     2   ar
     4     2     3   ar
     5     3     4   ar
     6     4    16    1
     7    16    17   am
     8    16    18    2
     9     4     5   ar
    10     5     6   ar
    11     6     7   ar
    12     7    10    1
    13    10    11   ar
    14    11    12   ar
    15    12    13   ar
    16    13    14   ar
    17    14    15   ar
    18     7     8   ar
    19     8     9   ar
    20    23    22    1
    21    23    24    1
    22    24    25    1
    23    25    26    1
    24    26    27    1
    25    27    28    1
    26     9     1   ar
    27    28    23    1
    28     9     5   ar
    29    15    10   ar
    30    17    19    1
    31    17    20    1
    32    27    29    1
@<TRIPOS>MOLECULE
*****
 29 32 0 0 0
SMALL
GASTEIGER

@<TRIPOS>ATOM
      1 C         142.0371  141.6511  162.6524 C.ar    1  UNL1        0.1321
      2 N         142.0428  140.6292  161.5544 N.ar    1  UNL1       -0.2290
      3 C         141.4849  139.2591  161.8020 C.ar    1  UNL1        0.1053
      4 C         140.9212  138.9108  163.1478 C.ar    1  UNL1        0.0783
      5 C         140.9156  139.9326  164.2459 C.ar    1  UNL1        0.0380
      6 S         140.4306  139.8791  165.6643 S.2     1  UNL1       -0.0866
      7 C         140.6888  141.2161  166.2932 C.ar    1  UNL1        0.0296
      8 C         141.3333  142.0961  165.2635 C.ar    1  UNL1        0.0098
      9 C         141.4735  141.3028  163.9982 C.ar    1  UNL1        0.0383
     10 C         140.3601  141.6051  167.7041 C.ar    1  UNL1        0.0060
     11 C         140.6630  142.9915  168.1899 C.ar    1  UNL1        0.0005
     12 C         140.3343  143.3803  169.6009 C.ar    1  UNL1        0.0000
     13 C         139.7027  142.3828  170.5260 C.ar    1  UNL1        0.0000
     14 C         139.3997  140.9964  170.0403 C.ar    1  UNL1        0.0000
     15 C         139.7285  140.6075  168.6293 C.ar    1  UNL1        0.0005
     16 C         140.3633  137.5405  163.3955 C.2     1  UNL1        0.2448
     17 N         141.2596  136.4437  163.8888 N.am    1  UNL1       -0.3253
     18 O         138.9090  137.2673  163.1497 O.2     1  UNL1       -0.2703
     19 H         142.2141  136.6231  164.0501 H       1  UNL1        0.1453
     20 H         140.8935  135.5444  164.0513 H       1  UNL1        0.1453
     21 C         144.0716  143.2611  162.5156 C.3     1  UNL1        0.1135
     22 N         142.5951  143.0213  162.4047 N.pl3   1  UNL1       -0.2917
     23 C         141.6764  144.1516  162.0461 C.3     1  UNL1        0.0899
     24 C         141.0822  144.2277  160.6710 C.3     1  UNL1        0.0226
     25 C         140.1636  145.3580  160.3124 C.3     1  UNL1        0.0188
     26 C         139.8392  146.4122  161.3290 C.3     1  UNL1        0.0687
     27 N         140.4335  146.3361  162.7042 N.3     1  UNL1       -0.2961
     28 C         141.3521  145.2058  163.0628 C.3     1  UNL1        0.0886
     29 H         139.6534  146.3011  163.3605 H       1  UNL1        0.1233
@<TRIPOS>BOND
     1    21    22    1
     2    22     1    1
     3     1     2   ar
     4     2     3   ar
     5     3     4   ar
     6     4    16    1
     7    16    17   am
     8    16    18    2
     9     4     5   ar
    10     5     6   ar
    11     6     7   ar
    12     7    10    1
    13    10    11   ar
    14    11    12   ar
    15    12    13   ar
    16    13    14   ar
    17    14    15   ar
    18     7     8   ar
    19     8     9   ar
    20    23    22    1
    21    23    24    1
    22    24    25    1
    23    25    26    1
    24    26    27    1
    25    27    28    1
    26     9     1   ar
    27    28    23    1
    28     9     5   ar
    29    15    10   ar
    30    17    19    1
    31    17    20    1
    32    27    29    1
@<TRIPOS>MOLECULE
*****
 29 32 0 0 0
SMALL
GASTEIGER

@<TRIPOS>ATOM
      1 C         139.0220  141.9388  163.1008 C.ar    1  UNL1        0.1321
      2 N         138.5742  140.7992  162.2344 N.ar    1  UNL1       -0.2290
      3 C         138.7754  139.3850  162.6919 C.ar    1  UNL1        0.1053
      4 C         139.4246  139.1103  164.0161 C.ar    1  UNL1        0.0783
      5 C         139.8725  140.2499  164.8825 C.ar    1  UNL1        0.0380
      6 S         140.5370  140.2877  166.2267 S.2     1  UNL1       -0.0866
      7 C         140.7465  141.7254  166.5999 C.ar    1  UNL1        0.0296
      8 C         140.2114  142.5760  165.4863 C.ar    1  UNL1        0.0098
      9 C         139.6712  141.6641  164.4249 C.ar    1  UNL1        0.0383
     10 C         141.3799  142.2247  167.8646 C.ar    1  UNL1        0.0060
     11 C         140.5836  143.0595  168.8233 C.ar    1  UNL1        0.0005
     12 C         141.2171  143.5588  170.0880 C.ar    1  UNL1        0.0000
     13 C         142.6467  143.2234  170.3940 C.ar    1  UNL1        0.0000
     14 C         143.4430  142.3887  169.4353 C.ar    1  UNL1        0.0000
     15 C         142.8095  141.8893  168.1706 C.ar    1  UNL1        0.0005
     16 C         139.6258  137.6960  164.4736 C.2     1  UNL1        0.2448
     17 N         140.8280  136.9239  164.0169 N.am    1  UNL1       -0.3253
     18 O         138.6248  137.0539  165.3878 O.2     1  UNL1       -0.2703
     19 H         141.4850  137.3453  163.4169 H       1  UNL1        0.1453
     20 H         140.9601  135.9956  164.3172 H       1  UNL1        0.1453
     21 C         137.7657  144.2056  163.2836 C.3     1  UNL1        0.1135
     22 N         138.8208  143.3530  162.6432 N.pl3   1  UNL1       -0.2917
     23 C         139.6746  143.9148  161.5452 C.3     1  UNL1        0.0899
     24 C         139.4542  143.4798  160.1268 C.3     1  UNL1        0.0226
     25 C         140.3080  144.0415  159.0288 C.3     1  UNL1        0.0188
     26 C         141.3821  145.0382  159.3493 C.3     1  UNL1        0.0687
     27 N         141.6025  145.4732  160.7678 N.3     1  UNL1       -0.2961
     28 C         140.7487  144.9115  161.8659 C.3     1  UNL1        0.0886
     29 H         141.4795  146.4856  160.7878 H       1  UNL1        0.1233
@<TRIPOS>BOND
     1    21    22    1
     2    22     1    1
     3     1     2   ar
     4     2     3   ar
     5     3     4   ar
     6     4    16    1
     7    16    17   am
     8    16    18    2
     9     4     5   ar
    10     5     6   ar
    11     6     7   ar
    12     7    10    1
    13    10    11   ar
    14    11    12   ar
    15    12    13   ar
    16    13    14   ar
    17    14    15   ar
    18     7     8   ar
    19     8     9   ar
    20    23    22    1
    21    23    24    1
    22    24    25    1
    23    25    26    1
    24    26    27    1
    25    27    28    1
    26     9     1   ar
    27    28    23    1
    28     9     5   ar
    29    15    10   ar
    30    17    19    1
    31    17    20    1
    32    27    29    1
@<TRIPOS>MOLECULE
*****
 29 32 0 0 0
SMALL
GASTEIGER

@<TRIPOS>ATOM
      1 C         139.7062  143.7826  160.5167 C.ar    1  UNL1        0.1321
      2 N         139.5375  144.0154  159.0445 N.ar    1  UNL1       -0.2290
      3 C         138.9571  142.9385  158.1766 C.ar    1  UNL1        0.1053
      4 C         138.5454  141.6287  158.7808 C.ar    1  UNL1        0.0783
      5 C         138.7142  141.3959  160.2530 C.ar    1  UNL1        0.0380
      6 S         138.4015  140.2160  161.1249 S.2     1  UNL1       -0.0866
      7 C         138.7886  140.5638  162.5317 C.ar    1  UNL1        0.0296
      8 C         139.3406  141.9586  162.5293 C.ar    1  UNL1        0.0098
      9 C         139.2946  142.4728  161.1209 C.ar    1  UNL1        0.0383
     10 C         138.6484  139.6732  163.7305 C.ar    1  UNL1        0.0060
     11 C         138.1528  140.2365  165.0294 C.ar    1  UNL1        0.0005
     12 C         138.0126  139.3458  166.2282 C.ar    1  UNL1        0.0000
     13 C         138.3680  137.8920  166.1282 C.ar    1  UNL1        0.0000
     14 C         138.8636  137.3287  164.8293 C.ar    1  UNL1        0.0000
     15 C         139.0038  138.2194  163.6305 C.ar    1  UNL1        0.0005
     16 C         137.9650  140.5517  157.9128 C.2     1  UNL1        0.2448
     17 N         136.6028  140.7272  157.3099 N.am    1  UNL1       -0.3253
     18 O         138.7469  139.2994  157.6477 O.2     1  UNL1       -0.2703
     19 H         136.0896  141.5492  157.4839 H       1  UNL1        0.1453
     20 H         136.2218  140.0204  156.7402 H       1  UNL1        0.1453
     21 C         139.5137  146.1209  161.6326 C.3     1  UNL1        0.1135
     22 N         140.2867  144.8595  161.3846 N.pl3   1  UNL1       -0.2917
     23 C         141.6401  144.6751  162.0047 C.3     1  UNL1        0.0899
     24 C         141.9237  145.2356  163.3667 C.3     1  UNL1        0.0226
     25 C         143.2771  145.0511  163.9867 C.3     1  UNL1        0.0188
     26 C         144.3468  144.3061  163.2446 C.3     1  UNL1        0.0687
     27 N         144.0631  143.7455  161.8825 N.3     1  UNL1       -0.2961
     28 C         142.7097  143.9300  161.2625 C.3     1  UNL1        0.0886
     29 H         144.2272  142.7403  161.9378 H       1  UNL1        0.1233
@<TRIPOS>BOND
     1    21    22    1
     2    22     1    1
     3     1     2   ar
     4     2     3   ar
     5     3     4   ar
     6     4    16    1
     7    16    17   am
     8    16    18    2
     9     4     5   ar
    10     5     6   ar
    11     6     7   ar
    12     7    10    1
    13    10    11   ar
    14    11    12   ar
    15    12    13   ar
    16    13    14   ar
    17    14    15   ar
    18     7     8   ar
    19     8     9   ar
    20    23    22    1
    21    23    24    1
    22    24    25    1
    23    25    26    1
    24    26    27    1
    25    27    28    1
    26     9     1   ar
    27    28    23    1
    28     9     5   ar
    29    15    10   ar
    30    17    19    1
    31    17    20    1
    32    27    29    1
@<TRIPOS>MOLECULE
*****
 29 32 0 0 0
SMALL
GASTEIGER

@<TRIPOS>ATOM
      1 C         139.0788  139.9135  167.8278 C.ar    1  UNL1        0.1321
      2 N         138.2182  138.7209  167.5327 N.ar    1  UNL1       -0.2290
      3 C         138.0325  138.2620  166.1168 C.ar    1  UNL1        0.1053
      4 C         138.7075  138.9956  164.9959 C.ar    1  UNL1        0.0783
      5 C         139.5681  140.1882  165.2911 C.ar    1  UNL1        0.0380
      6 S         140.3539  141.1040  164.4001 S.2     1  UNL1       -0.0866
      7 C         141.0252  142.1289  165.2654 C.ar    1  UNL1        0.0296
      8 C         140.6543  141.8466  166.6912 C.ar    1  UNL1        0.0098
      9 C         139.7538  140.6471  166.7070 C.ar    1  UNL1        0.0383
     10 C         141.9118  143.2410  164.7887 C.ar    1  UNL1        0.0060
     11 C         143.3911  143.1762  165.0286 C.ar    1  UNL1        0.0005
     12 C         144.2776  144.2883  164.5519 C.ar    1  UNL1        0.0000
     13 C         143.6849  145.4653  163.8353 C.ar    1  UNL1        0.0000
     14 C         142.2056  145.5301  163.5955 C.ar    1  UNL1        0.0000
     15 C         141.3191  144.4180  164.0722 C.ar    1  UNL1        0.0005
     16 C         138.5218  138.5366  163.5799 C.2     1  UNL1        0.2448
     17 N         139.1101  137.2318  163.1312 N.am    1  UNL1       -0.3253
     18 O         137.7477  139.3824  162.6128 O.2     1  UNL1       -0.2703
     19 H         139.6182  136.6767  163.7660 H       1  UNL1        0.1453
     20 H         138.9882  136.9306  162.2019 H       1  UNL1        0.1453
     21 C         138.2260  140.0531  170.2780 C.3     1  UNL1        0.1135
     22 N         139.2645  140.3724  169.2438 N.pl3   1  UNL1       -0.2917
     23 C         140.4887  141.1507  169.6255 C.3     1  UNL1        0.0899
     24 C         141.8320  140.4833  169.6254 C.3     1  UNL1        0.0226
     25 C         143.0561  141.2616  170.0072 C.3     1  UNL1        0.0188
     26 C         142.9370  142.7072  170.3891 C.3     1  UNL1        0.0687
     27 N         141.5936  143.3746  170.3892 N.3     1  UNL1       -0.2961
     28 C         140.3694  142.5963  170.0074 C.3     1  UNL1        0.0886
     29 H         141.6557  144.1615  169.7431 H       1  UNL1        0.1233
@<TRIPOS>BOND
     1    21    22    1
     2    22     1    1
     3     1     2   ar
     4     2     3   ar
     5     3     4   ar
     6     4    16    1
     7    16    17   am
     8    16    18    2
     9     4     5   ar
    10     5     6   ar
    11     6     7   ar
    12     7    10    1
    13    10    11   ar
    14    11    12   ar
    15    12    13   ar
    16    13    14   ar
    17    14    15   ar
    18     7     8   ar
    19     8     9   ar
    20    23    22    1
    21    23    24    1
    22    24    25    1
    23    25    26    1
    24    26    27    1
    25    27    28    1
    26     9     1   ar
    27    28    23    1
    28     9     5   ar
    29    15    10   ar
    30    17    19    1
    31    17    20    1
    32    27    29    1
@<TRIPOS>MOLECULE
*****
 29 32 0 0 0
SMALL
GASTEIGER

@<TRIPOS>ATOM
      1 C         139.6695  139.9639  163.7271 C.ar    1  UNL1        0.1321
      2 N         138.7122  140.3594  162.6422 N.ar    1  UNL1       -0.2290
      3 C         138.0754  141.7173  162.6620 C.ar    1  UNL1        0.1053
      4 C         138.3959  142.6799  163.7670 C.ar    1  UNL1        0.0783
      5 C         139.3532  142.2844  164.8520 C.ar    1  UNL1        0.0380
      6 S         139.8580  143.0155  166.0606 S.2     1  UNL1       -0.0866
      7 C         140.8068  142.1093  166.7876 C.ar    1  UNL1        0.0296
      8 C         140.8883  140.8182  166.0284 C.ar    1  UNL1        0.0098
      9 C         139.9900  140.9264  164.8320 C.ar    1  UNL1        0.0383
     10 C         141.5445  142.4367  168.0519 C.ar    1  UNL1        0.0060
     11 C         142.9769  142.0219  168.2133 C.ar    1  UNL1        0.0005
     12 C         143.7146  142.3493  169.4778 C.ar    1  UNL1        0.0000
     13 C         143.0199  143.0915  170.5807 C.ar    1  UNL1        0.0000
     14 C         141.5875  143.5063  170.4193 C.ar    1  UNL1        0.0000
     15 C         140.8498  143.1788  169.1549 C.ar    1  UNL1        0.0005
     16 C         137.7590  144.0379  163.7868 C.2     1  UNL1        0.2448
     17 N         137.5610  144.7921  162.5055 N.am    1  UNL1       -0.3253
     18 O         137.3203  144.6415  165.0880 O.2     1  UNL1       -0.2703
     19 H         137.8489  144.3959  161.6515 H       1  UNL1        0.1453
     20 H         137.1430  145.6834  162.5185 H       1  UNL1        0.1453
     21 C         139.6800  137.4727  164.4645 C.3     1  UNL1        0.1135
     22 N         140.3063  138.6059  163.7072 N.pl3   1  UNL1       -0.2917
     23 C         141.5694  138.3812  162.9299 C.3     1  UNL1        0.0899
     24 C         142.8712  138.9229  163.4414 C.3     1  UNL1        0.0226
     25 C         144.1343  138.6982  162.6642 C.3     1  UNL1        0.0188
     26 C         144.0955  137.9317  161.3754 C.3     1  UNL1        0.0687
     27 N         142.7936  137.3899  160.8639 N.3     1  UNL1       -0.2961
     28 C         141.5305  137.6146  161.6412 C.3     1  UNL1        0.0886
     29 H         142.9093  136.3803  160.7754 H       1  UNL1        0.1233
@<TRIPOS>BOND
     1    21    22    1
     2    22     1    1
     3     1     2   ar
     4     2     3   ar
     5     3     4   ar
     6     4    16    1
     7    16    17   am
     8    16    18    2
     9     4     5   ar
    10     5     6   ar
    11     6     7   ar
    12     7    10    1
    13    10    11   ar
    14    11    12   ar
    15    12    13   ar
    16    13    14   ar
    17    14    15   ar
    18     7     8   ar
    19     8     9   ar
    20    23    22    1
    21    23    24    1
    22    24    25    1
    23    25    26    1
    24    26    27    1
    25    27    28    1
    26     9     1   ar
    27    28    23    1
    28     9     5   ar
    29    15    10   ar
    30    17    19    1
    31    17    20    1
    32    27    29    1
@<TRIPOS>MOLECULE
*****
 29 32 0 0 0
SMALL
GASTEIGER

@<TRIPOS>ATOM
      1 C         139.0884  141.0794  161.5914 C.ar    1  UNL1        0.1321
      2 N         138.9117  141.7658  160.2694 N.ar    1  UNL1       -0.2290
      3 C         139.3920  143.1748  160.0858 C.ar    1  UNL1        0.1053
      4 C         140.0491  143.8976  161.2242 C.ar    1  UNL1        0.0783
      5 C         140.2258  143.2112  162.5462 C.ar    1  UNL1        0.0380
      6 S         140.8321  143.6666  163.8404 S.2     1  UNL1       -0.0866
      7 C         140.7265  142.5389  164.8239 C.ar    1  UNL1        0.0296
      8 C         140.0549  141.3866  164.1375 C.ar    1  UNL1        0.0098
      9 C         139.7455  141.8021  162.7298 C.ar    1  UNL1        0.0383
     10 C         141.2079  142.5599  166.2444 C.ar    1  UNL1        0.0060
     11 C         142.6399  142.2399  166.5558 C.ar    1  UNL1        0.0005
     12 C         143.1212  142.2609  167.9763 C.ar    1  UNL1        0.0000
     13 C         142.1706  142.6018  169.0854 C.ar    1  UNL1        0.0000
     14 C         140.7386  142.9219  168.7740 C.ar    1  UNL1        0.0000
     15 C         140.2573  142.9009  167.3535 C.ar    1  UNL1        0.0005
     16 C         140.5294  145.3067  161.0406 C.2     1  UNL1        0.2448
     17 N         141.7369  145.5832  160.1948 N.am    1  UNL1       -0.3253
     18 O         139.8022  146.4392  161.7027 O.2     1  UNL1       -0.2703
     19 H         142.2142  144.8399  159.7602 H       1  UNL1        0.1453
     20 H         142.0522  146.5081  160.0742 H       1  UNL1        0.1453
     21 C         137.3111  139.2339  161.1605 C.3     1  UNL1        0.1135
     22 N         138.6081  139.6703  161.7750 N.pl3   1  UNL1       -0.2917
     23 C         139.4247  138.6974  162.5731 C.3     1  UNL1        0.0899
     24 C         139.0047  138.3308  163.9655 C.3     1  UNL1        0.0226
     25 C         139.8213  137.3580  164.7636 C.3     1  UNL1        0.0188
     26 C         141.0579  136.7519  164.1691 C.3     1  UNL1        0.0687
     27 N         141.4779  137.1186  162.7766 N.3     1  UNL1       -0.2961
     28 C         140.6613  138.0914  161.9785 C.3     1  UNL1        0.0886
     29 H         141.5096  136.2513  162.2406 H       1  UNL1        0.1233
@<TRIPOS>BOND
     1    21    22    1
     2    22     1    1
     3     1     2   ar
     4     2     3   ar
     5     3     4   ar
     6     4    16    1
     7    16    17   am
     8    16    18    2
     9     4     5   ar
    10     5     6   ar
    11     6     7   ar
    12     7    10    1
    13    10    11   ar
    14    11    12   ar
    15    12    13   ar
    16    13    14   ar
    17    14    15   ar
    18     7     8   ar
    19     8     9   ar
    20    23    22    1
    21    23    24    1
    22    24    25    1
    23    25    26    1
    24    26    27    1
    25    27    28    1
    26     9     1   ar
    27    28    23    1
    28     9     5   ar
    29    15    10   ar
    30    17    19    1
    31    17    20    1
    32    27    29    1
@<TRIPOS>MOLECULE
*****
 29 32 0 0 0
SMALL
GASTEIGER

@<TRIPOS>ATOM
      1 C         139.0404  142.1486  163.8570 C.ar    1  UNL1        0.1321
      2 N         138.1495  141.1152  163.2338 N.ar    1  UNL1       -0.2290
      3 C         137.8531  139.8404  163.9664 C.ar    1  UNL1        0.1053
      4 C         138.4475  139.5988  165.3223 C.ar    1  UNL1        0.0783
      5 C         139.3384  140.6322  165.9455 C.ar    1  UNL1        0.0380
      6 S         140.0623  140.6731  167.2586 S.2     1  UNL1       -0.0866
      7 C         140.8062  141.9732  167.3375 C.ar    1  UNL1        0.0296
      8 C         140.5420  142.7359  166.0731 C.ar    1  UNL1        0.0098
      9 C         139.6348  141.9071  165.2128 C.ar    1  UNL1        0.0383
     10 C         141.6637  142.4305  168.4801 C.ar    1  UNL1        0.0060
     11 C         143.0926  141.9835  168.5712 C.ar    1  UNL1        0.0005
     12 C         143.9501  142.4408  169.7138 C.ar    1  UNL1        0.0000
     13 C         143.3787  143.3450  170.7654 C.ar    1  UNL1        0.0000
     14 C         141.9498  143.7921  170.6743 C.ar    1  UNL1        0.0000
     15 C         141.0923  143.3348  169.5316 C.ar    1  UNL1        0.0005
     16 C         138.1510  138.3239  166.0549 C.2     1  UNL1        0.2448
     17 N         137.3950  138.3614  167.3498 N.am    1  UNL1       -0.3253
     18 O         138.6106  137.0115  165.4924 O.2     1  UNL1       -0.2703
     19 H         137.0934  139.2228  167.7190 H       1  UNL1        0.1453
     20 H         137.2004  137.5246  167.8307 H       1  UNL1        0.1453
     21 C         138.4613  144.6248  163.3250 C.3     1  UNL1        0.1135
     22 N         139.3368  143.4235  163.1243 N.pl3   1  UNL1       -0.2917
     23 C         140.5089  143.4971  162.1910 C.3     1  UNL1        0.0899
     24 C         141.3289  142.2711  161.9188 C.3     1  UNL1        0.0226
     25 C         142.5009  142.3446  160.9855 C.3     1  UNL1        0.0188
     26 C         142.8528  143.6443  160.3244 C.3     1  UNL1        0.0687
     27 N         142.0327  144.8704  160.5966 N.3     1  UNL1       -0.2961
     28 C         140.8606  144.7968  161.5300 C.3     1  UNL1        0.0886
     29 H         141.6732  145.1899  159.6971 H       1  UNL1        0.1233
@<TRIPOS>BOND
     1    21    22    1
     2    22     1    1
     3     1     2   ar
     4     2     3   ar
     5     3     4   ar
     6     4    16    1
     7    16    17   am
     8    16    18    2
     9     4     5   ar
    10     5     6   ar
    11     6     7   ar
    12     7    10    1
    13    10    11   ar
    14    11    12   ar
    15    12    13   ar
    16    13    14   ar
    17    14    15   ar
    18     7     8   ar
    19     8     9   ar
    20    23    22    1
    21    23    24    1
    22    24    25    1
    23    25    26    1
    24    26    27    1
    25    27    28    1
    26     9     1   ar
    27    28    23    1
    28     9     5   ar
    29    15    10   ar
    30    17    19    1
    31    17    20    1
    32    27    29    1
