@<TRIPOS>MOLECULE
*****
 33 37 0 0 0
SMALL
GASTEIGER

@<TRIPOS>ATOM
      1 N         138.3217  140.0058  159.8242 N.am    1  UNL1       -0.2438
      2 C         138.9577  138.6474  159.7979 C.3     1  UNL1        0.1001
      3 C         139.1437  138.1951  161.2159 C.3     1  UNL1        0.0306
      4 C         138.6227  139.2739  162.1187 C.3     1  UNL1        0.0737
      5 C         138.0664  140.4330  162.8913 C.3     1  UNL1        0.0260
      6 C         138.0554  140.3987  164.3908 C.3     1  UNL1        0.0727
      7 N         138.6006  139.2053  165.1178 N.3     1  UNL1       -0.2703
      8 C         139.1569  138.0462  164.3452 C.3     1  UNL1        0.0727
      9 C         139.1679  138.0805  162.8457 C.3     1  UNL1        0.0260
     10 C         138.1147  140.3929  161.2586 C.2     1  UNL1        0.2296
     11 O         137.5064  141.6741  161.7470 O.2     1  UNL1       -0.2745
     12 C         135.4153  140.7395  155.5800 C.3     1  UNL1        0.0737
     13 C         136.5037  141.1987  156.5044 C.ar    1  UNL1        0.1410
     14 N         137.2271  142.4840  156.2312 N.ar    1  UNL1       -0.2291
     15 C         138.3154  142.9431  157.1556 C.ar    1  UNL1        0.1031
     16 C         138.6803  142.1170  158.3533 C.ar    1  UNL1        0.0554
     17 C         137.9569  140.8318  158.6265 C.ar    1  UNL1        0.1403
     18 N         136.8685  140.3726  157.7021 N.ar    1  UNL1       -0.2156
     19 C         138.5896  139.1711  166.6174 C.3     1  UNL1        0.1063
     20 C         139.7535  139.7189  167.3887 C.3     1  UNL1        0.1483
     21 O         139.6760  139.8344  168.8822 O.3     1  UNL1       -0.3786
     22 H         140.5060  140.2043  169.2215 H       1  UNL1        0.2108
     23 C         140.9951  140.1514  166.6665 C.ar    1  UNL1        0.0015
     24 C         142.0652  139.1495  166.3485 C.ar    1  UNL1       -0.0020
     25 C         143.3067  139.5819  165.6263 C.ar    1  UNL1        0.0060
     26 C         143.4781  141.0162  165.2221 C.ar    1  UNL1        0.0748
     27 C         142.4080  142.0181  165.5401 C.ar    1  UNL1        0.0233
     28 C         141.1665  141.5857  166.2623 C.ar    1  UNL1       -0.0238
     29 C         140.0964  142.5876  166.5803 C.3     1  UNL1        0.0306
     30 C         142.8532  143.3527  165.0199 C.3     1  UNL1        0.2352
     31 O         144.1985  143.1757  164.3803 O.3     1  UNL1       -0.4404
     32 C         144.5847  141.7317  164.5053 C.2     1  UNL1        0.3413
     33 O         145.8545  141.1119  164.0019 O.2     1  UNL1       -0.2449
@<TRIPOS>BOND
     1    12    13    1
     2    13    14   ar
     3    14    15   ar
     4    15    16   ar
     5    16    17   ar
     6    17     1    1
     7     1     2    1
     8     2     3    1
     9     3     4    1
    10     4     5    1
    11     5     6    1
    12     6     7    1
    13     7    19    1
    14    19    20    1
    15    20    21    1
    16    20    23    1
    17    23    24   ar
    18    24    25   ar
    19    25    26   ar
    20    26    27   ar
    21    27    28   ar
    22    28    29    1
    23    27    30    1
    24    30    31    1
    25    31    32    1
    26    32    33    2
    27     7     8    1
    28     8     9    1
    29     4    10    1
    30    10    11    2
    31    17    18   ar
    32    18    13   ar
    33    10     1   am
    34     9     4    1
    35    28    23   ar
    36    32    26    1
    37    21    22    1
@<TRIPOS>MOLECULE
*****
 33 37 0 0 0
SMALL
GASTEIGER

@<TRIPOS>ATOM
      1 N         140.0778  144.9686  160.2969 N.am    1  UNL1       -0.2438
      2 C         139.8825  145.8969  161.4589 C.3     1  UNL1        0.1001
      3 C         139.4980  145.0724  162.6514 C.3     1  UNL1        0.0306
      4 C         139.4556  143.6343  162.2266 C.3     1  UNL1        0.0737
      5 C         139.4542  142.2461  161.6585 C.3     1  UNL1        0.0260
      6 C         139.1133  141.0775  162.5349 C.3     1  UNL1        0.0727
      7 N         138.7738  141.2971  163.9794 N.3     1  UNL1       -0.2703
      8 C         138.7752  142.6854  164.5474 C.3     1  UNL1        0.0727
      9 C         139.1160  143.8540  163.6710 C.3     1  UNL1        0.0260
     10 C         139.8139  143.5702  160.7714 C.2     1  UNL1        0.2296
     11 O         139.8942  142.3262  159.9371 O.2     1  UNL1       -0.2745
     12 C         138.9957  147.4323  155.8518 C.3     1  UNL1        0.0737
     13 C         139.9273  146.6002  156.6824 C.ar    1  UNL1        0.1410
     14 N         141.2494  146.1680  156.1210 N.ar    1  UNL1       -0.2291
     15 C         142.1809  145.3359  156.9515 C.ar    1  UNL1        0.1031
     16 C         141.7903  144.9361  158.3435 C.ar    1  UNL1        0.0554
     17 C         140.4683  145.3684  158.9049 C.ar    1  UNL1        0.1403
     18 N         139.5367  146.2005  158.0744 N.ar    1  UNL1       -0.2156
     19 C         138.4329  140.1284  164.8558 C.3     1  UNL1        0.1063
     20 C         139.4875  139.5097  165.7245 C.3     1  UNL1        0.1483
     21 O         140.2041  138.2732  165.2689 O.3     1  UNL1       -0.3786
     22 H         140.8488  138.0063  165.9428 H       1  UNL1        0.2108
     23 C         139.8257  140.1274  167.0490 C.ar    1  UNL1        0.0015
     24 C         138.9544  139.8675  168.2421 C.ar    1  UNL1       -0.0020
     25 C         139.2925  140.4852  169.5665 C.ar    1  UNL1        0.0060
     26 C         140.5018  141.3628  169.6978 C.ar    1  UNL1        0.0748
     27 C         141.3730  141.6227  168.5048 C.ar    1  UNL1        0.0233
     28 C         141.0350  141.0050  167.1804 C.ar    1  UNL1       -0.0238
     29 C         141.9062  141.2650  165.9873 C.3     1  UNL1        0.0306
     30 C         142.4919  142.5241  168.9355 C.3     1  UNL1        0.2352
     31 O         142.3122  142.8213  170.3948 O.3     1  UNL1       -0.4404
     32 C         141.0822  142.1036  170.8659 C.2     1  UNL1        0.3413
     33 O         140.5297  142.1232  172.2603 O.2     1  UNL1       -0.2449
@<TRIPOS>BOND
     1    12    13    1
     2    13    14   ar
     3    14    15   ar
     4    15    16   ar
     5    16    17   ar
     6    17     1    1
     7     1     2    1
     8     2     3    1
     9     3     4    1
    10     4     5    1
    11     5     6    1
    12     6     7    1
    13     7    19    1
    14    19    20    1
    15    20    21    1
    16    20    23    1
    17    23    24   ar
    18    24    25   ar
    19    25    26   ar
    20    26    27   ar
    21    27    28   ar
    22    28    29    1
    23    27    30    1
    24    30    31    1
    25    31    32    1
    26    32    33    2
    27     7     8    1
    28     8     9    1
    29     4    10    1
    30    10    11    2
    31    17    18   ar
    32    18    13   ar
    33    10     1   am
    34     9     4    1
    35    28    23   ar
    36    32    26    1
    37    21    22    1
@<TRIPOS>MOLECULE
*****
 33 37 0 0 0
SMALL
GASTEIGER

@<TRIPOS>ATOM
      1 N         141.3709  139.9389  167.4822 N.am    1  UNL1       -0.2438
      2 C         142.6244  139.2139  167.0906 C.3     1  UNL1        0.1001
      3 C         142.4271  138.6586  165.7113 C.3     1  UNL1        0.0306
      4 C         141.0516  139.0403  165.2502 C.3     1  UNL1        0.0737
      5 C         139.6587  139.4939  164.9277 C.3     1  UNL1        0.0260
      6 C         139.0440  139.1455  163.6046 C.3     1  UNL1        0.0727
      7 N         139.8222  138.3435  162.6040 N.3     1  UNL1       -0.2703
      8 C         141.2151  137.8899  162.9265 C.3     1  UNL1        0.0727
      9 C         141.8298  138.2383  164.2496 C.3     1  UNL1        0.0260
     10 C         140.3989  139.8315  166.3447 C.2     1  UNL1        0.2296
     11 O         139.0168  140.4133  166.3081 O.2     1  UNL1       -0.2745
     12 C         140.3913  144.3126  170.1109 C.3     1  UNL1        0.0737
     13 C         140.6417  142.8337  170.0971 C.ar    1  UNL1        0.1410
     14 N         140.6526  142.0628  171.3838 N.ar    1  UNL1       -0.2291
     15 C         140.9030  140.5840  171.3699 C.ar    1  UNL1        0.1031
     16 C         141.1424  139.8760  170.0693 C.ar    1  UNL1        0.0554
     17 C         141.1315  140.6469  168.7827 C.ar    1  UNL1        0.1403
     18 N         140.8811  142.1257  168.7965 N.ar    1  UNL1       -0.2156
     19 C         139.2074  137.9951  161.2808 C.3     1  UNL1        0.1063
     20 C         139.3898  138.9087  160.1052 C.3     1  UNL1        0.1483
     21 O         139.3977  138.3482  158.7139 O.3     1  UNL1       -0.3786
     22 H         139.5251  139.0679  158.0761 H       1  UNL1        0.2108
     23 C         139.5644  140.3828  160.3210 C.ar    1  UNL1        0.0015
     24 C         138.3673  141.2507  160.5736 C.ar    1  UNL1       -0.0020
     25 C         138.5418  142.7248  160.7893 C.ar    1  UNL1        0.0060
     26 C         139.9133  143.3310  160.7524 C.ar    1  UNL1        0.0748
     27 C         141.1104  142.4631  160.4998 C.ar    1  UNL1        0.0233
     28 C         140.9359  140.9890  160.2841 C.ar    1  UNL1       -0.0238
     29 C         142.1330  140.1211  160.0314 C.3     1  UNL1        0.0306
     30 C         142.3292  143.3372  160.5199 C.3     1  UNL1        0.2352
     31 O         141.8855  144.7453  160.7850 O.3     1  UNL1       -0.4404
     32 C         140.3924  144.7415  160.9287 C.2     1  UNL1        0.3413
     33 O         139.5298  145.9380  161.2009 O.2     1  UNL1       -0.2449
@<TRIPOS>BOND
     1    12    13    1
     2    13    14   ar
     3    14    15   ar
     4    15    16   ar
     5    16    17   ar
     6    17     1    1
     7     1     2    1
     8     2     3    1
     9     3     4    1
    10     4     5    1
    11     5     6    1
    12     6     7    1
    13     7    19    1
    14    19    20    1
    15    20    21    1
    16    20    23    1
    17    23    24   ar
    18    24    25   ar
    19    25    26   ar
    20    26    27   ar
    21    27    28   ar
    22    28    29    1
    23    27    30    1
    24    30    31    1
    25    31    32    1
    26    32    33    2
    27     7     8    1
    28     8     9    1
    29     4    10    1
    30    10    11    2
    31    17    18   ar
    32    18    13   ar
    33    10     1   am
    34     9     4    1
    35    28    23   ar
    36    32    26    1
    37    21    22    1
@<TRIPOS>MOLECULE
*****
 33 37 0 0 0
SMALL
GASTEIGER

@<TRIPOS>ATOM
      1 N         143.0688  139.3657  158.2834 N.am    1  UNL1       -0.2438
      2 C         143.3328  140.7195  157.6938 C.3     1  UNL1        0.1001
      3 C         143.8539  141.6068  158.7851 C.3     1  UNL1        0.0306
      4 C         143.9120  140.8015  160.0494 C.3     1  UNL1        0.0737
      5 C         143.9144  139.8757  161.2295 C.3     1  UNL1        0.0260
      6 C         144.3765  140.3689  162.5686 C.3     1  UNL1        0.0727
      7 N         144.8362  141.7879  162.7275 N.3     1  UNL1       -0.2703
      8 C         144.8337  142.7137  161.5473 C.3     1  UNL1        0.0727
      9 C         144.3716  142.2205  160.2083 C.3     1  UNL1        0.0260
     10 C         143.4268  139.4164  159.7393 C.2     1  UNL1        0.2296
     11 O         143.3185  138.2813  160.7139 O.2     1  UNL1       -0.2745
     12 C         143.6982  134.5102  156.5436 C.3     1  UNL1        0.0737
     13 C         142.8545  135.7432  156.6767 C.ar    1  UNL1        0.1410
     14 N         141.4818  135.7816  156.0731 N.ar    1  UNL1       -0.2291
     15 C         140.6383  137.0147  156.2063 C.ar    1  UNL1        0.1031
     16 C         141.1673  138.2094  156.9430 C.ar    1  UNL1        0.0554
     17 C         142.5398  138.1710  157.5466 C.ar    1  UNL1        0.1403
     18 N         143.3835  136.9379  157.4135 N.ar    1  UNL1       -0.2156
     19 C         145.2983  142.2810  164.0667 C.3     1  UNL1        0.1063
     20 C         144.4836  143.2941  164.8148 C.3     1  UNL1        0.1483
     21 O         145.1106  144.0944  165.9177 O.3     1  UNL1       -0.3786
     22 H         144.4515  144.6984  166.2940 H       1  UNL1        0.2108
     23 C         143.0417  143.5071  164.4601 C.ar    1  UNL1        0.0015
     24 C         142.6555  144.6115  163.5214 C.ar    1  UNL1       -0.0020
     25 C         141.2137  144.8244  163.1667 C.ar    1  UNL1        0.0060
     26 C         140.1582  143.9330  163.7506 C.ar    1  UNL1        0.0748
     27 C         140.5444  142.8285  164.6893 C.ar    1  UNL1        0.0233
     28 C         141.9861  142.6156  165.0440 C.ar    1  UNL1       -0.0238
     29 C         142.3724  141.5112  165.9827 C.3     1  UNL1        0.0306
     30 C         139.2924  142.1147  165.1051 C.3     1  UNL1        0.2352
     31 O         138.1324  142.7779  164.4235 O.3     1  UNL1       -0.4404
     32 C         138.6675  143.9016  163.5864 C.2     1  UNL1        0.3413
     33 O         137.8547  144.8309  162.7345 O.2     1  UNL1       -0.2449
@<TRIPOS>BOND
     1    12    13    1
     2    13    14   ar
     3    14    15   ar
     4    15    16   ar
     5    16    17   ar
     6    17     1    1
     7     1     2    1
     8     2     3    1
     9     3     4    1
    10     4     5    1
    11     5     6    1
    12     6     7    1
    13     7    19    1
    14    19    20    1
    15    20    21    1
    16    20    23    1
    17    23    24   ar
    18    24    25   ar
    19    25    26   ar
    20    26    27   ar
    21    27    28   ar
    22    28    29    1
    23    27    30    1
    24    30    31    1
    25    31    32    1
    26    32    33    2
    27     7     8    1
    28     8     9    1
    29     4    10    1
    30    10    11    2
    31    17    18   ar
    32    18    13   ar
    33    10     1   am
    34     9     4    1
    35    28    23   ar
    36    32    26    1
    37    21    22    1
@<TRIPOS>MOLECULE
*****
 33 37 0 0 0
SMALL
GASTEIGER

@<TRIPOS>ATOM
      1 N         138.4287  141.7999  158.6061 N.am    1  UNL1       -0.2438
      2 C         138.5349  140.3224  158.3696 C.3     1  UNL1        0.1001
      3 C         138.4995  139.6359  159.7028 C.3     1  UNL1        0.0306
      4 C         138.3716  140.6891  160.7633 C.3     1  UNL1        0.0737
      5 C         138.2438  141.8477  161.7074 C.3     1  UNL1        0.0260
      6 C         138.1722  141.6058  163.1860 C.3     1  UNL1        0.0727
      7 N         138.2283  140.2054  163.7206 N.3     1  UNL1       -0.2703
      8 C         138.3560  139.0469  162.7765 C.3     1  UNL1        0.0727
      9 C         138.4277  139.2887  161.2979 C.3     1  UNL1        0.0260
     10 C         138.3278  142.0265  160.0855 C.2     1  UNL1        0.2296
     11 O         138.2047  143.3569  160.7673 O.2     1  UNL1       -0.2745
     12 C         140.6021  145.9854  156.4250 C.3     1  UNL1        0.0737
     13 C         139.5110  144.9567  156.4583 C.ar    1  UNL1        0.1410
     14 N         138.4154  144.9920  155.4343 N.ar    1  UNL1       -0.2291
     15 C         137.3243  143.9633  155.4677 C.ar    1  UNL1        0.1031
     16 C         137.3287  142.8993  156.5250 C.ar    1  UNL1        0.0554
     17 C         138.4243  142.8639  157.5488 C.ar    1  UNL1        0.1403
     18 N         139.5154  143.8927  157.5155 N.ar    1  UNL1       -0.2156
     19 C         138.1567  139.9636  165.1993 C.3     1  UNL1        0.1063
     20 C         139.3183  139.3398  165.9144 C.3     1  UNL1        0.1483
     21 O         139.8573  138.0166  165.4575 O.3     1  UNL1       -0.3786
     22 H         140.6016  137.7580  166.0233 H       1  UNL1        0.2108
     23 C         139.9409  140.0391  167.0863 C.ar    1  UNL1        0.0015
     24 C         139.2904  139.9651  168.4359 C.ar    1  UNL1       -0.0020
     25 C         139.9130  140.6643  169.6079 C.ar    1  UNL1        0.0060
     26 C         141.1860  141.4375  169.4302 C.ar    1  UNL1        0.0748
     27 C         141.8364  141.5115  168.0806 C.ar    1  UNL1        0.0233
     28 C         141.2139  140.8123  166.9087 C.ar    1  UNL1       -0.0238
     29 C         141.8643  140.8862  165.5590 C.3     1  UNL1        0.0306
     30 C         143.0782  142.3429  168.2095 C.3     1  UNL1        0.2352
     31 O         143.1953  142.7827  169.6388 O.3     1  UNL1       -0.4404
     32 C         142.0258  142.2232  170.3932 C.2     1  UNL1        0.3413
     33 O         141.7454  142.4155  171.8541 O.2     1  UNL1       -0.2449
@<TRIPOS>BOND
     1    12    13    1
     2    13    14   ar
     3    14    15   ar
     4    15    16   ar
     5    16    17   ar
     6    17     1    1
     7     1     2    1
     8     2     3    1
     9     3     4    1
    10     4     5    1
    11     5     6    1
    12     6     7    1
    13     7    19    1
    14    19    20    1
    15    20    21    1
    16    20    23    1
    17    23    24   ar
    18    24    25   ar
    19    25    26   ar
    20    26    27   ar
    21    27    28   ar
    22    28    29    1
    23    27    30    1
    24    30    31    1
    25    31    32    1
    26    32    33    2
    27     7     8    1
    28     8     9    1
    29     4    10    1
    30    10    11    2
    31    17    18   ar
    32    18    13   ar
    33    10     1   am
    34     9     4    1
    35    28    23   ar
    36    32    26    1
    37    21    22    1
@<TRIPOS>MOLECULE
*****
 33 37 0 0 0
SMALL
GASTEIGER

@<TRIPOS>ATOM
      1 N         139.4351  138.9611  159.4405 N.am    1  UNL1       -0.2438
      2 C         138.3999  140.0466  159.4338 C.3     1  UNL1        0.1001
      3 C         137.9925  140.3074  160.8537 C.3     1  UNL1        0.0306
      4 C         138.7760  139.3832  161.7380 C.3     1  UNL1        0.0737
      5 C         139.6266  138.4040  162.4914 C.3     1  UNL1        0.0260
      6 C         139.5346  138.3256  163.9865 C.3     1  UNL1        0.0727
      7 N         138.5921  139.2264  164.7282 N.3     1  UNL1       -0.2703
      8 C         137.7415  140.2056  163.9749 C.3     1  UNL1        0.0727
      9 C         137.8335  140.2840  162.4798 C.3     1  UNL1        0.0260
     10 C         139.6676  138.5511  160.8647 C.2     1  UNL1        0.2296
     11 O         140.6238  137.4946  161.3331 O.2     1  UNL1       -0.2745
     12 C         139.1838  136.9823  154.6426 C.3     1  UNL1        0.0737
     13 C         139.9924  137.3971  155.8360 C.ar    1  UNL1        0.1410
     14 N         141.4838  137.2374  155.8237 N.ar    1  UNL1       -0.2291
     15 C         142.2923  137.6523  157.0171 C.ar    1  UNL1        0.1031
     16 C         141.6094  138.2269  158.2227 C.ar    1  UNL1        0.0554
     17 C         140.1180  138.3866  158.2349 C.ar    1  UNL1        0.1403
     18 N         139.3095  137.9717  157.0416 N.ar    1  UNL1       -0.2156
     19 C         138.5002  139.1480  166.2234 C.3     1  UNL1        0.1063
     20 C         139.4397  139.9485  167.0756 C.3     1  UNL1        0.1483
     21 O         139.4466  139.7615  168.5639 O.3     1  UNL1       -0.3786
     22 H         140.1071  140.3507  168.9608 H       1  UNL1        0.2108
     23 C         140.3725  140.9363  166.4395 C.ar    1  UNL1        0.0015
     24 C         139.9063  142.3338  166.1574 C.ar    1  UNL1       -0.0020
     25 C         140.8390  143.3215  165.5213 C.ar    1  UNL1        0.0060
     26 C         142.2378  142.9116  165.1675 C.ar    1  UNL1        0.0748
     27 C         142.7039  141.5141  165.4496 C.ar    1  UNL1        0.0233
     28 C         141.7713  140.5264  166.0857 C.ar    1  UNL1       -0.0238
     29 C         142.2375  139.1289  166.3678 C.3     1  UNL1        0.0306
     30 C         144.1282  141.3996  164.9933 C.3     1  UNL1        0.2352
     31 O         144.5424  142.7263  164.4291 O.3     1  UNL1       -0.4404
     32 C         143.3740  143.6608  164.5367 C.2     1  UNL1        0.3413
     33 O         143.3466  145.0930  164.0918 O.2     1  UNL1       -0.2449
@<TRIPOS>BOND
     1    12    13    1
     2    13    14   ar
     3    14    15   ar
     4    15    16   ar
     5    16    17   ar
     6    17     1    1
     7     1     2    1
     8     2     3    1
     9     3     4    1
    10     4     5    1
    11     5     6    1
    12     6     7    1
    13     7    19    1
    14    19    20    1
    15    20    21    1
    16    20    23    1
    17    23    24   ar
    18    24    25   ar
    19    25    26   ar
    20    26    27   ar
    21    27    28   ar
    22    28    29    1
    23    27    30    1
    24    30    31    1
    25    31    32    1
    26    32    33    2
    27     7     8    1
    28     8     9    1
    29     4    10    1
    30    10    11    2
    31    17    18   ar
    32    18    13   ar
    33    10     1   am
    34     9     4    1
    35    28    23   ar
    36    32    26    1
    37    21    22    1
@<TRIPOS>MOLECULE
*****
 33 37 0 0 0
SMALL
GASTEIGER

@<TRIPOS>ATOM
      1 N         141.3235  138.4142  159.0001 N.am    1  UNL1       -0.2438
      2 C         139.8317  138.3637  158.8514 C.3     1  UNL1        0.1001
      3 C         139.2252  138.4867  160.2178 C.3     1  UNL1        0.0306
      4 C         140.3422  138.6134  161.2111 C.3     1  UNL1        0.0737
      5 C         141.5575  138.7301  162.0824 C.3     1  UNL1        0.0260
      6 C         141.4045  138.8759  163.5674 C.3     1  UNL1        0.0727
      7 N         140.0361  138.9050  164.1811 N.3     1  UNL1       -0.2703
      8 C         138.8207  138.7883  163.3098 C.3     1  UNL1        0.0727
      9 C         138.9738  138.6425  161.8248 C.3     1  UNL1        0.0260
     10 C         141.6390  138.5686  160.4585 C.2     1  UNL1        0.2296
     11 O         143.0104  138.6617  161.0589 O.2     1  UNL1       -0.2745
     12 C         143.9574  135.5807  155.5313 C.3     1  UNL1        0.0737
     13 C         143.6410  136.9092  156.1517 C.ar    1  UNL1        0.1410
     14 N         144.3253  138.1495  155.6582 N.ar    1  UNL1       -0.2291
     15 C         144.0090  139.4779  156.2787 C.ar    1  UNL1        0.1031
     16 C         143.0084  139.5662  157.3926 C.ar    1  UNL1        0.0554
     17 C         142.3241  138.3260  157.8861 C.ar    1  UNL1        0.1403
     18 N         142.6404  136.9975  157.2657 N.ar    1  UNL1       -0.2156
     19 C         139.8831  139.0509  165.6662 C.3     1  UNL1        0.1063
     20 C         139.6947  140.4106  166.2708 C.3     1  UNL1        0.1483
     21 O         139.5438  140.5566  167.7560 O.3     1  UNL1       -0.3786
     22 H         139.4317  141.4940  167.9790 H       1  UNL1        0.2108
     23 C         139.6571  141.6244  165.3901 C.ar    1  UNL1        0.0015
     24 C         138.3791  142.0193  164.7115 C.ar    1  UNL1       -0.0020
     25 C         138.3415  143.2330  163.8309 C.ar    1  UNL1        0.0060
     26 C         139.5820  144.0518  163.6290 C.ar    1  UNL1        0.0748
     27 C         140.8601  143.6568  164.3077 C.ar    1  UNL1        0.0233
     28 C         140.8976  142.4431  165.1882 C.ar    1  UNL1       -0.0238
     29 C         142.1757  142.0481  165.8669 C.3     1  UNL1        0.0306
     30 C         141.9155  144.6508  163.9230 C.3     1  UNL1        0.2352
     31 O         141.2898  145.6601  163.0065 O.3     1  UNL1       -0.4404
     32 C         139.8476  145.2898  162.8249 C.2     1  UNL1        0.3413
     33 O         138.8467  146.0281  161.9863 O.2     1  UNL1       -0.2449
@<TRIPOS>BOND
     1    12    13    1
     2    13    14   ar
     3    14    15   ar
     4    15    16   ar
     5    16    17   ar
     6    17     1    1
     7     1     2    1
     8     2     3    1
     9     3     4    1
    10     4     5    1
    11     5     6    1
    12     6     7    1
    13     7    19    1
    14    19    20    1
    15    20    21    1
    16    20    23    1
    17    23    24   ar
    18    24    25   ar
    19    25    26   ar
    20    26    27   ar
    21    27    28   ar
    22    28    29    1
    23    27    30    1
    24    30    31    1
    25    31    32    1
    26    32    33    2
    27     7     8    1
    28     8     9    1
    29     4    10    1
    30    10    11    2
    31    17    18   ar
    32    18    13   ar
    33    10     1   am
    34     9     4    1
    35    28    23   ar
    36    32    26    1
    37    21    22    1
@<TRIPOS>MOLECULE
*****
 33 37 0 0 0
SMALL
GASTEIGER

@<TRIPOS>ATOM
      1 N         141.6246  138.4264  158.4707 N.am    1  UNL1       -0.2438
      2 C         140.2310  138.9050  158.1896 C.3     1  UNL1        0.1001
      3 C         139.4603  138.8694  159.4760 C.3     1  UNL1        0.0306
      4 C         140.3776  138.3687  160.5522 C.3     1  UNL1        0.0737
      5 C         141.4057  137.8578  161.5175 C.3     1  UNL1        0.0260
      6 C         141.0482  137.6648  162.9614 C.3     1  UNL1        0.0727
      7 N         139.6626  137.9827  163.4400 N.3     1  UNL1       -0.2703
      8 C         138.6345  138.4937  162.4746 C.3     1  UNL1        0.0727
      9 C         138.9920  138.6867  161.0308 C.3     1  UNL1        0.0260
     10 C         141.7152  138.0950  159.9309 C.2     1  UNL1        0.2296
     11 O         142.9300  137.5802  160.6444 O.2     1  UNL1       -0.2745
     12 C         145.5853  140.5394  155.8539 C.3     1  UNL1        0.0737
     13 C         144.7133  139.3577  156.1594 C.ar    1  UNL1        0.1410
     14 N         144.9495  138.0509  155.4618 N.ar    1  UNL1       -0.2291
     15 C         144.0775  136.8694  155.7673 C.ar    1  UNL1        0.1031
     16 C         142.9692  136.9946  156.7702 C.ar    1  UNL1        0.0554
     17 C         142.7329  138.3013  157.4677 C.ar    1  UNL1        0.1403
     18 N         143.6049  139.4829  157.1623 N.ar    1  UNL1       -0.2156
     19 C         139.3051  137.7897  164.8840 C.3     1  UNL1        0.1063
     20 C         139.3676  138.9492  165.8335 C.3     1  UNL1        0.1483
     21 O         138.4963  138.9665  167.0544 O.3     1  UNL1       -0.3786
     22 H         138.6592  139.7804  167.5563 H       1  UNL1        0.2108
     23 C         140.3014  140.0913  165.5623 C.ar    1  UNL1        0.0015
     24 C         141.7636  139.9532  165.8671 C.ar    1  UNL1       -0.0020
     25 C         142.6974  141.0953  165.5958 C.ar    1  UNL1        0.0060
     26 C         142.1690  142.3755  165.0197 C.ar    1  UNL1        0.0748
     27 C         140.7068  142.5136  164.7149 C.ar    1  UNL1        0.0233
     28 C         139.7730  141.3715  164.9862 C.ar    1  UNL1       -0.0238
     29 C         138.3108  141.5096  164.6814 C.3     1  UNL1        0.0306
     30 C         140.4776  143.8863  164.1555 C.3     1  UNL1        0.2352
     31 O         141.7981  144.5967  164.1145 O.3     1  UNL1       -0.4404
     32 C         142.8434  143.6629  164.6486 C.2     1  UNL1        0.3413
     33 O         144.3064  143.9637  164.7874 O.2     1  UNL1       -0.2449
@<TRIPOS>BOND
     1    12    13    1
     2    13    14   ar
     3    14    15   ar
     4    15    16   ar
     5    16    17   ar
     6    17     1    1
     7     1     2    1
     8     2     3    1
     9     3     4    1
    10     4     5    1
    11     5     6    1
    12     6     7    1
    13     7    19    1
    14    19    20    1
    15    20    21    1
    16    20    23    1
    17    23    24   ar
    18    24    25   ar
    19    25    26   ar
    20    26    27   ar
    21    27    28   ar
    22    28    29    1
    23    27    30    1
    24    30    31    1
    25    31    32    1
    26    32    33    2
    27     7     8    1
    28     8     9    1
    29     4    10    1
    30    10    11    2
    31    17    18   ar
    32    18    13   ar
    33    10     1   am
    34     9     4    1
    35    28    23   ar
    36    32    26    1
    37    21    22    1
@<TRIPOS>MOLECULE
*****
 33 37 0 0 0
SMALL
GASTEIGER

@<TRIPOS>ATOM
      1 N         138.5992  141.4479  159.0006 N.am    1  UNL1       -0.2438
      2 C         138.9665  140.0044  158.8232 C.3     1  UNL1        0.1001
      3 C         138.9490  139.3523  160.1739 C.3     1  UNL1        0.0306
      4 C         138.5710  140.3927  161.1862 C.3     1  UNL1        0.0737
      5 C         138.1842  141.5345  162.0788 C.3     1  UNL1        0.0260
      6 C         138.0466  141.3177  163.5566 C.3     1  UNL1        0.0727
      7 N         138.2958  139.9593  164.1419 N.3     1  UNL1       -0.2703
      8 C         138.6826  138.8176  163.2493 C.3     1  UNL1        0.0727
      9 C         138.8202  139.0343  161.7715 C.3     1  UNL1        0.0260
     10 C         138.3548  141.6879  160.4611 C.2     1  UNL1        0.2296
     11 O         137.9631  142.9938  161.0865 O.2     1  UNL1       -0.2745
     12 C         140.4929  145.6179  156.5462 C.3     1  UNL1        0.0737
     13 C         139.4416  144.5567  156.6821 C.ar    1  UNL1        0.1410
     14 N         138.2857  144.5192  155.7267 N.ar    1  UNL1       -0.2291
     15 C         137.2345  143.4580  155.8627 C.ar    1  UNL1        0.1031
     16 C         137.3390  142.4343  156.9540 C.ar    1  UNL1        0.0554
     17 C         138.4947  142.4717  157.9093 C.ar    1  UNL1        0.1403
     18 N         139.5461  143.5329  157.7734 N.ar    1  UNL1       -0.2156
     19 C         138.1581  139.7426  165.6198 C.3     1  UNL1        0.1063
     20 C         139.3275  139.9895  166.5261 C.3     1  UNL1        0.1483
     21 O         139.1607  139.8790  168.0127 O.3     1  UNL1       -0.3786
     22 H         140.0068  140.0680  168.4480 H       1  UNL1        0.2108
     23 C         140.6638  140.3470  165.9459 C.ar    1  UNL1        0.0015
     24 C         141.6191  139.2641  165.5399 C.ar    1  UNL1       -0.0020
     25 C         142.9553  139.6214  164.9596 C.ar    1  UNL1        0.0060
     26 C         143.3363  141.0617  164.7855 C.ar    1  UNL1        0.0748
     27 C         142.3811  142.1446  165.1915 C.ar    1  UNL1        0.0233
     28 C         141.0449  141.7872  165.7717 C.ar    1  UNL1       -0.0238
     29 C         140.0896  142.8701  166.1777 C.3     1  UNL1        0.0306
     30 C         143.0289  143.4663  164.9027 C.3     1  UNL1        0.2352
     31 O         144.3845  143.2004  164.3182 O.3     1  UNL1       -0.4404
     32 C         144.5745  141.7142  164.2457 C.2     1  UNL1        0.3413
     33 O         145.7893  141.0050  163.7250 O.2     1  UNL1       -0.2449
@<TRIPOS>BOND
     1    12    13    1
     2    13    14   ar
     3    14    15   ar
     4    15    16   ar
     5    16    17   ar
     6    17     1    1
     7     1     2    1
     8     2     3    1
     9     3     4    1
    10     4     5    1
    11     5     6    1
    12     6     7    1
    13     7    19    1
    14    19    20    1
    15    20    21    1
    16    20    23    1
    17    23    24   ar
    18    24    25   ar
    19    25    26   ar
    20    26    27   ar
    21    27    28   ar
    22    28    29    1
    23    27    30    1
    24    30    31    1
    25    31    32    1
    26    32    33    2
    27     7     8    1
    28     8     9    1
    29     4    10    1
    30    10    11    2
    31    17    18   ar
    32    18    13   ar
    33    10     1   am
    34     9     4    1
    35    28    23   ar
    36    32    26    1
    37    21    22    1
