@<TRIPOS>MOLECULE
*****
 37 40 0 0 0
SMALL
GASTEIGER

@<TRIPOS>ATOM
      1 N         142.6330  139.9656  162.3338 N.am    1  UNL1       -0.2782
      2 C         143.6509  140.3110  163.3801 C.2     1  UNL1        0.2673
      3 O         144.9327  140.9834  162.9864 O.2     1  UNL1       -0.2682
      4 H         141.7918  139.5242  162.5922 H       1  UNL1        0.1553
      5 C         143.3871  139.9840  164.8200 C.ar    1  UNL1        0.1349
      6 C         143.6884  138.6115  165.3449 C.ar    1  UNL1        0.0261
      7 C         143.4245  138.2845  166.7848 C.ar    1  UNL1        0.0329
      8 C         142.8593  139.3300  167.6999 C.ar    1  UNL1        0.1578
      9 F         142.5954  139.0030  169.1398 F       1  UNL1       -0.2026
     10 C         142.5579  140.7026  167.1751 C.ar    1  UNL1        0.1131
     11 N         142.8218  141.0296  165.7352 N.ar    1  UNL1       -0.2384
     12 C         141.9927  141.7480  168.0902 C.ar    1  UNL1        0.0747
     13 C         142.7699  142.1900  169.2946 C.ar    1  UNL1        0.1438
     14 F         144.1123  141.5865  169.5840 F       1  UNL1       -0.2040
     15 C         142.2046  143.2356  170.2098 C.ar    1  UNL1        0.0298
     16 C         140.8622  143.8391  169.9205 C.ar    1  UNL1        0.0046
     17 C         140.0851  143.3971  168.7160 C.ar    1  UNL1        0.0298
     18 C         140.6503  142.3516  167.8009 C.ar    1  UNL1        0.1438
     19 F         139.8731  141.9096  166.5965 F       1  UNL1       -0.2040
     20 C         142.3007  141.5261  160.2834 C.ar    1  UNL1       -0.0059
     21 C         142.5646  141.8531  158.8435 C.ar    1  UNL1        0.0176
     22 C         143.4247  140.9466  158.0140 C.ar    1  UNL1        0.0987
     23 N         144.0211  139.7129  158.6244 N.ar    1  UNL1       -0.2410
     24 C         143.7572  139.3859  160.0643 C.ar    1  UNL1        0.1132
     25 C         142.8969  140.2926  160.8939 C.ar    1  UNL1        0.0660
     26 C         141.8462  145.2615  163.8668 C.3     1  UNL1        0.0025
     27 C         141.2132  144.3005  162.9046 C.3     1  UNL1        0.0273
     28 C         142.0734  143.3938  162.0751 C.3     1  UNL1        0.0069
     29 C         141.4404  142.4328  161.1130 C.3     1  UNL1        0.0262
     30 C         139.9473  142.3784  160.9803 C.3     1  UNL1        0.0360
     31 C         139.0872  143.2850  161.8098 C.3     1  UNL1        0.1352
     32 O         137.5940  143.2307  161.6771 O.3     1  UNL1       -0.3821
     33 C         139.7201  144.2461  162.7720 C.3     1  UNL1        0.1128
     34 C         138.2722  144.5638  163.0011 C.3     1  UNL1        0.0318
     35 O         139.8501  145.3175  163.8137 O.3     1  UNL1       -0.3844
     36 H         137.1922  143.8764  162.2792 H       1  UNL1        0.2104
     37 H         138.9678  145.6299  164.0681 H       1  UNL1        0.2103
@<TRIPOS>BOND
     1    27    26    1
     2    27    28    1
     3    28    29    1
     4    29    20    1
     5    20    21   ar
     6    21    22   ar
     7    22    23   ar
     8    23    24   ar
     9    24    25   ar
    10    25     1    1
    11     1     2   am
    12     2     3    2
    13     2     5    1
    14     5     6   ar
    15     6     7   ar
    16     7     8   ar
    17     8     9    1
    18     8    10   ar
    19    10    12    1
    20    12    13   ar
    21    13    14    1
    22    13    15   ar
    23    15    16   ar
    24    16    17   ar
    25    17    18   ar
    26    18    19    1
    27    10    11   ar
    28    29    30    1
    29    30    31    1
    30    31    32    1
    31    31    33    1
    32    33    34    1
    33    33    35    1
    34    33    27    1
    35    25    20   ar
    36    11     5   ar
    37    18    12   ar
    38     1     4    1
    39    32    36    1
    40    35    37    1
@<TRIPOS>MOLECULE
*****
 37 40 0 0 0
SMALL
GASTEIGER

@<TRIPOS>ATOM
      1 N         141.9755  139.6841  163.1071 N.am    1  UNL1       -0.2782
      2 C         140.5238  139.4969  163.4355 C.2     1  UNL1        0.2673
      3 O         139.5364  139.2227  162.3402 O.2     1  UNL1       -0.2682
      4 H         142.6236  139.8640  163.8260 H       1  UNL1        0.1553
      5 C         140.0597  139.5839  164.8592 C.ar    1  UNL1        0.1349
      6 C         138.7503  138.9717  165.2600 C.ar    1  UNL1        0.0261
      7 C         138.2862  139.0587  166.6837 C.ar    1  UNL1        0.0329
      8 C         139.1315  139.7580  167.7067 C.ar    1  UNL1        0.1578
      9 F         138.6674  139.8450  169.1304 F       1  UNL1       -0.2026
     10 C         140.4409  140.3702  167.3059 C.ar    1  UNL1        0.1131
     11 N         140.9050  140.2832  165.8822 N.ar    1  UNL1       -0.2384
     12 C         141.2862  141.0695  168.3289 C.ar    1  UNL1        0.0747
     13 C         141.0060  142.5001  168.6823 C.ar    1  UNL1        0.1438
     14 F         139.8805  143.2314  168.0127 F       1  UNL1       -0.2040
     15 C         141.8513  143.1994  169.7053 C.ar    1  UNL1        0.0298
     16 C         142.9768  142.4680  170.3749 C.ar    1  UNL1        0.0046
     17 C         143.2570  141.0374  170.0216 C.ar    1  UNL1        0.0298
     18 C         142.4117  140.3382  168.9986 C.ar    1  UNL1        0.1438
     19 F         142.6919  138.9076  168.6452 F       1  UNL1       -0.2040
     20 C         142.4551  140.8258  160.8231 C.ar    1  UNL1       -0.0059
     21 C         142.9192  140.7387  159.3994 C.ar    1  UNL1        0.0176
     22 C         143.3678  139.4230  158.8358 C.ar    1  UNL1        0.0987
     23 N         143.3522  138.1942  159.6961 N.ar    1  UNL1       -0.2410
     24 C         142.8881  138.2812  161.1198 C.ar    1  UNL1        0.1132
     25 C         142.4396  139.5970  161.6833 C.ar    1  UNL1        0.0660
     26 C         143.4725  145.1441  163.5281 C.3     1  UNL1        0.0025
     27 C         142.5153  144.3007  162.7391 C.3     1  UNL1        0.0273
     28 C         142.9638  142.9850  162.1756 C.3     1  UNL1        0.0069
     29 C         142.0066  142.1416  161.3867 C.3     1  UNL1        0.0262
     30 C         140.6009  142.6140  161.1612 C.3     1  UNL1        0.0360
     31 C         140.1524  143.9297  161.7247 C.3     1  UNL1        0.1352
     32 O         138.7467  144.4022  161.4993 O.3     1  UNL1       -0.3821
     33 C         141.1097  144.7731  162.5137 C.3     1  UNL1        0.1128
     34 C         139.8892  145.6433  162.5689 C.3     1  UNL1        0.0318
     35 O         141.6429  145.9187  163.3218 O.3     1  UNL1       -0.3844
     36 H         138.6228  145.2640  161.9268 H       1  UNL1        0.2104
     37 H         140.9449  146.5813  163.4433 H       1  UNL1        0.2103
@<TRIPOS>BOND
     1    27    26    1
     2    27    28    1
     3    28    29    1
     4    29    20    1
     5    20    21   ar
     6    21    22   ar
     7    22    23   ar
     8    23    24   ar
     9    24    25   ar
    10    25     1    1
    11     1     2   am
    12     2     3    2
    13     2     5    1
    14     5     6   ar
    15     6     7   ar
    16     7     8   ar
    17     8     9    1
    18     8    10   ar
    19    10    12    1
    20    12    13   ar
    21    13    14    1
    22    13    15   ar
    23    15    16   ar
    24    16    17   ar
    25    17    18   ar
    26    18    19    1
    27    10    11   ar
    28    29    30    1
    29    30    31    1
    30    31    32    1
    31    31    33    1
    32    33    34    1
    33    33    35    1
    34    33    27    1
    35    25    20   ar
    36    11     5   ar
    37    18    12   ar
    38     1     4    1
    39    32    36    1
    40    35    37    1
@<TRIPOS>MOLECULE
*****
 37 40 0 0 0
SMALL
GASTEIGER

@<TRIPOS>ATOM
      1 N         143.3714  141.7944  163.1160 N.am    1  UNL1       -0.2782
      2 C         142.9034  140.4106  163.4568 C.2     1  UNL1        0.2673
      3 O         142.4359  139.4881  162.3704 O.2     1  UNL1       -0.2682
      4 H         143.6782  142.3999  163.8291 H       1  UNL1        0.1553
      5 C         142.9029  139.9493  164.8841 C.ar    1  UNL1        0.1349
      6 C         143.5903  138.6700  165.2591 C.ar    1  UNL1        0.0261
      7 C         143.5899  138.2087  166.6864 C.ar    1  UNL1        0.0329
      8 C         142.9019  139.0268  167.7388 C.ar    1  UNL1        0.1578
      9 F         142.9015  138.5655  169.1661 F       1  UNL1       -0.2026
     10 C         142.2144  140.3062  167.3638 C.ar    1  UNL1        0.1131
     11 N         142.2149  140.7675  165.9365 N.ar    1  UNL1       -0.2384
     12 C         141.5265  141.1243  168.4162 C.ar    1  UNL1        0.0747
     13 C         142.2210  142.3102  169.0173 C.ar    1  UNL1        0.1438
     14 F         143.6034  142.6780  168.5661 F       1  UNL1       -0.2040
     15 C         141.5330  143.1283  170.0697 C.ar    1  UNL1        0.0298
     16 C         140.1506  142.7605  170.5209 C.ar    1  UNL1        0.0046
     17 C         139.4561  141.5746  169.9198 C.ar    1  UNL1        0.0298
     18 C         140.1440  140.7565  168.8674 C.ar    1  UNL1        0.1438
     19 F         139.4496  139.5706  168.2663 F       1  UNL1       -0.2040
     20 C         142.1178  142.8080  161.0786 C.ar    1  UNL1       -0.0059
     21 C         142.1183  143.2693  159.6513 C.ar    1  UNL1        0.0176
     22 C         143.3728  143.1783  158.8341 C.ar    1  UNL1        0.0987
     23 N         144.6269  142.6259  159.4442 N.ar    1  UNL1       -0.2410
     24 C         144.6265  142.1647  160.8715 C.ar    1  UNL1        0.1132
     25 C         143.3718  142.2557  161.6887 C.ar    1  UNL1        0.0660
     26 C         137.5078  140.8614  162.4780 C.3     1  UNL1        0.0025
     27 C         138.5582  141.9257  162.5954 C.3     1  UNL1        0.0273
     28 C         139.8128  141.8347  161.7783 C.3     1  UNL1        0.0069
     29 C         140.8632  142.8990  161.8958 C.3     1  UNL1        0.0262
     30 C         140.6591  144.0544  162.8304 C.3     1  UNL1        0.0360
     31 C         139.4045  144.1454  163.6475 C.3     1  UNL1        0.1352
     32 O         139.2003  145.3007  164.5822 O.3     1  UNL1       -0.3821
     33 C         138.3541  143.0810  163.5300 C.3     1  UNL1        0.1128
     34 C         137.7071  143.9745  164.5464 C.3     1  UNL1        0.0318
     35 O         137.0789  142.3271  163.7656 O.3     1  UNL1       -0.3844
     36 H         138.3449  145.2071  165.0299 H       1  UNL1        0.2104
     37 H         136.5406  142.7988  164.4203 H       1  UNL1        0.2103
@<TRIPOS>BOND
     1    27    26    1
     2    27    28    1
     3    28    29    1
     4    29    20    1
     5    20    21   ar
     6    21    22   ar
     7    22    23   ar
     8    23    24   ar
     9    24    25   ar
    10    25     1    1
    11     1     2   am
    12     2     3    2
    13     2     5    1
    14     5     6   ar
    15     6     7   ar
    16     7     8   ar
    17     8     9    1
    18     8    10   ar
    19    10    12    1
    20    12    13   ar
    21    13    14    1
    22    13    15   ar
    23    15    16   ar
    24    16    17   ar
    25    17    18   ar
    26    18    19    1
    27    10    11   ar
    28    29    30    1
    29    30    31    1
    30    31    32    1
    31    31    33    1
    32    33    34    1
    33    33    35    1
    34    33    27    1
    35    25    20   ar
    36    11     5   ar
    37    18    12   ar
    38     1     4    1
    39    32    36    1
    40    35    37    1
@<TRIPOS>MOLECULE
*****
 37 40 0 0 0
SMALL
GASTEIGER

@<TRIPOS>ATOM
      1 N         142.9227  140.7809  160.8233 N.am    1  UNL1       -0.2782
      2 C         143.8827  141.0285  161.9490 C.2     1  UNL1        0.2673
      3 O         144.9938  142.0222  161.7823 O.2     1  UNL1       -0.2682
      4 H         142.1934  140.1286  160.9327 H       1  UNL1        0.1553
      5 C         143.7315  140.2822  163.2414 C.ar    1  UNL1        0.1349
      6 C         144.9421  139.7340  163.9370 C.ar    1  UNL1        0.0261
      7 C         144.7909  138.9878  165.2294 C.ar    1  UNL1        0.0329
      8 C         143.4292  138.7898  165.8262 C.ar    1  UNL1        0.1578
      9 F         143.2780  138.0436  167.1186 F       1  UNL1       -0.2026
     10 C         142.2184  139.3380  165.1307 C.ar    1  UNL1        0.1131
     11 N         142.3696  140.0842  163.8383 N.ar    1  UNL1       -0.2384
     12 C         140.8567  139.1400  165.7275 C.ar    1  UNL1        0.0747
     13 C         140.4663  139.8855  166.9692 C.ar    1  UNL1        0.1438
     14 F         141.4378  140.8290  167.6141 F       1  UNL1       -0.2040
     15 C         139.1045  139.6874  167.5661 C.ar    1  UNL1        0.0298
     16 C         138.1330  138.7438  166.9212 C.ar    1  UNL1        0.0046
     17 C         138.5233  137.9983  165.6794 C.ar    1  UNL1        0.0298
     18 C         139.8851  138.1964  165.0826 C.ar    1  UNL1        0.1438
     19 F         140.2754  137.4509  163.8409 F       1  UNL1       -0.2040
     20 C         142.3449  142.8213  159.3224 C.ar    1  UNL1       -0.0059
     21 C         142.4960  143.5675  158.0300 C.ar    1  UNL1        0.0176
     22 C         143.3762  143.0196  156.9461 C.ar    1  UNL1        0.0987
     23 N         144.1053  141.7253  157.1546 N.ar    1  UNL1       -0.2410
     24 C         143.9541  140.9791  158.4470 C.ar    1  UNL1        0.1132
     25 C         143.0739  141.5271  159.5309 C.ar    1  UNL1        0.0660
     26 C         141.7717  145.5702  163.6946 C.3     1  UNL1        0.0025
     27 C         141.1780  144.7438  162.5924 C.3     1  UNL1        0.0273
     28 C         142.0582  144.1957  161.5085 C.3     1  UNL1        0.0069
     29 C         141.4646  143.3694  160.4064 C.3     1  UNL1        0.0262
     30 C         139.9908  143.0910  160.3882 C.3     1  UNL1        0.0360
     31 C         139.1106  143.6391  161.4721 C.3     1  UNL1        0.1352
     32 O         137.6367  143.3607  161.4539 O.3     1  UNL1       -0.3821
     33 C         139.7042  144.4654  162.5742 C.3     1  UNL1        0.1128
     34 C         138.2627  144.4753  162.9887 C.3     1  UNL1        0.0318
     35 O         139.7971  145.2952  163.8203 O.3     1  UNL1       -0.3844
     36 H         137.2182  143.7845  162.2194 H       1  UNL1        0.2104
     37 H         138.9147  145.3910  164.2115 H       1  UNL1        0.2103
@<TRIPOS>BOND
     1    27    26    1
     2    27    28    1
     3    28    29    1
     4    29    20    1
     5    20    21   ar
     6    21    22   ar
     7    22    23   ar
     8    23    24   ar
     9    24    25   ar
    10    25     1    1
    11     1     2   am
    12     2     3    2
    13     2     5    1
    14     5     6   ar
    15     6     7   ar
    16     7     8   ar
    17     8     9    1
    18     8    10   ar
    19    10    12    1
    20    12    13   ar
    21    13    14    1
    22    13    15   ar
    23    15    16   ar
    24    16    17   ar
    25    17    18   ar
    26    18    19    1
    27    10    11   ar
    28    29    30    1
    29    30    31    1
    30    31    32    1
    31    31    33    1
    32    33    34    1
    33    33    35    1
    34    33    27    1
    35    25    20   ar
    36    11     5   ar
    37    18    12   ar
    38     1     4    1
    39    32    36    1
    40    35    37    1
@<TRIPOS>MOLECULE
*****
 37 40 0 0 0
SMALL
GASTEIGER

@<TRIPOS>ATOM
      1 N         139.4185  140.0591  162.4228 N.am    1  UNL1       -0.2782
      2 C         140.2907  139.4708  163.4921 C.2     1  UNL1        0.2673
      3 O         141.5702  138.7813  163.1213 O.2     1  UNL1       -0.2682
      4 H         138.5787  140.5116  162.6662 H       1  UNL1        0.1553
      5 C         139.8834  139.5721  164.9322 C.ar    1  UNL1        0.1349
      6 C         138.5884  138.9689  165.3895 C.ar    1  UNL1        0.0261
      7 C         138.1811  139.0702  166.8296 C.ar    1  UNL1        0.0329
      8 C         139.0687  139.7746  167.8124 C.ar    1  UNL1        0.1578
      9 F         138.6614  139.8759  169.2524 F       1  UNL1       -0.2026
     10 C         140.3638  140.3778  167.3550 C.ar    1  UNL1        0.1131
     11 N         140.7711  140.2765  165.9150 N.ar    1  UNL1       -0.2384
     12 C         141.2514  141.0822  168.3378 C.ar    1  UNL1        0.0747
     13 C         142.3966  140.3505  168.9727 C.ar    1  UNL1        0.1438
     14 F         142.6542  138.9143  168.6248 F       1  UNL1       -0.2040
     15 C         143.2843  141.0550  169.9555 C.ar    1  UNL1        0.0298
     16 C         143.0268  142.4911  170.3033 C.ar    1  UNL1        0.0046
     17 C         141.8816  143.2229  169.6684 C.ar    1  UNL1        0.0298
     18 C         140.9939  142.5185  168.6857 C.ar    1  UNL1        0.1438
     19 F         139.8487  143.2502  168.0508 F       1  UNL1       -0.2040
     20 C         140.6398  141.0502  160.3549 C.ar    1  UNL1       -0.0059
     21 C         141.0471  140.9489  158.9149 C.ar    1  UNL1        0.0176
     22 C         140.6405  139.7552  158.1026 C.ar    1  UNL1        0.0987
     23 N         139.8266  138.6628  158.7304 N.ar    1  UNL1       -0.2410
     24 C         139.4192  138.7640  160.1705 C.ar    1  UNL1        0.1132
     25 C         139.8258  139.9578  160.9828 C.ar    1  UNL1        0.0660
     26 C         139.7347  145.8968  161.9955 C.3     1  UNL1        0.0025
     27 C         140.5938  144.6672  161.9875 C.3     1  UNL1        0.0273
     28 C         140.1873  143.4735  161.1753 C.3     1  UNL1        0.0069
     29 C         141.0464  142.2439  161.1672 C.3     1  UNL1        0.0262
     30 C         142.3120  142.2080  161.9714 C.3     1  UNL1        0.0360
     31 C         142.7186  143.4017  162.7836 C.3     1  UNL1        0.1352
     32 O         143.9843  143.3659  163.5878 O.3     1  UNL1       -0.3821
     33 C         141.8595  144.6313  162.7916 C.3     1  UNL1        0.1128
     34 C         142.9595  145.0761  163.7093 C.3     1  UNL1        0.0318
     35 O         141.3825  146.0154  163.1184 O.3     1  UNL1       -0.3844
     36 H         144.0979  144.2112  164.0499 H       1  UNL1        0.2104
     37 H         142.0120  146.4403  163.7219 H       1  UNL1        0.2103
@<TRIPOS>BOND
     1    27    26    1
     2    27    28    1
     3    28    29    1
     4    29    20    1
     5    20    21   ar
     6    21    22   ar
     7    22    23   ar
     8    23    24   ar
     9    24    25   ar
    10    25     1    1
    11     1     2   am
    12     2     3    2
    13     2     5    1
    14     5     6   ar
    15     6     7   ar
    16     7     8   ar
    17     8     9    1
    18     8    10   ar
    19    10    12    1
    20    12    13   ar
    21    13    14    1
    22    13    15   ar
    23    15    16   ar
    24    16    17   ar
    25    17    18   ar
    26    18    19    1
    27    10    11   ar
    28    29    30    1
    29    30    31    1
    30    31    32    1
    31    31    33    1
    32    33    34    1
    33    33    35    1
    34    33    27    1
    35    25    20   ar
    36    11     5   ar
    37    18    12   ar
    38     1     4    1
    39    32    36    1
    40    35    37    1
@<TRIPOS>MOLECULE
*****
 37 40 0 0 0
SMALL
GASTEIGER

@<TRIPOS>ATOM
      1 N         140.9901  139.6803  161.5791 N.am    1  UNL1       -0.2782
      2 C         140.2483  139.4744  162.8666 C.2     1  UNL1        0.2673
      3 O         138.7494  139.4195  162.8681 O.2     1  UNL1       -0.2682
      4 H         141.9739  139.7164  161.5782 H       1  UNL1        0.1553
      5 C         141.0057  139.3236  164.1526 C.ar    1  UNL1        0.1349
      6 C         142.1279  138.3331  164.2503 C.ar    1  UNL1        0.0261
      7 C         142.8852  138.1822  165.5363 C.ar    1  UNL1        0.0329
      8 C         142.5203  139.0218  166.7245 C.ar    1  UNL1        0.1578
      9 F         143.2776  138.8709  168.0105 F       1  UNL1       -0.2026
     10 C         141.3980  140.0122  166.6268 C.ar    1  UNL1        0.1131
     11 N         140.6407  140.1631  165.3409 N.ar    1  UNL1       -0.2384
     12 C         141.0331  140.8518  167.8151 C.ar    1  UNL1        0.0747
     13 C         141.9140  141.9946  168.2250 C.ar    1  UNL1        0.1438
     14 F         143.1598  142.2979  167.4466 F       1  UNL1       -0.2040
     15 C         141.5490  142.8341  169.4133 C.ar    1  UNL1        0.0298
     16 C         140.3032  142.5308  170.1917 C.ar    1  UNL1        0.0046
     17 C         139.4223  141.3880  169.7818 C.ar    1  UNL1        0.0298
     18 C         139.7872  140.5485  168.5935 C.ar    1  UNL1        0.1438
     19 F         138.9063  139.4057  168.1836 F       1  UNL1       -0.2040
     20 C         139.6453  141.1600  159.9202 C.ar    1  UNL1       -0.0059
     21 C         138.8880  141.3109  158.6343 C.ar    1  UNL1        0.0176
     22 C         138.7181  140.1330  157.7212 C.ar    1  UNL1        0.0987
     23 N         139.3056  138.8041  158.0942 N.ar    1  UNL1       -0.2410
     24 C         140.0629  138.6532  159.3801 C.ar    1  UNL1        0.1132
     25 C         140.2328  139.8312  160.2932 C.ar    1  UNL1        0.0660
     26 C         137.7522  144.3281  163.5780 C.3     1  UNL1        0.0025
     27 C         138.8686  143.9220  162.6622 C.3     1  UNL1        0.0273
     28 C         138.6988  142.7441  161.7492 C.3     1  UNL1        0.0069
     29 C         139.8151  142.3380  160.8333 C.3     1  UNL1        0.0262
     30 C         141.1013  143.1099  160.8304 C.3     1  UNL1        0.0360
     31 C         141.2711  144.2878  161.7434 C.3     1  UNL1        0.1352
     32 O         142.5573  145.0597  161.7406 O.3     1  UNL1       -0.3821
     33 C         140.1547  144.6939  162.6593 C.3     1  UNL1        0.1128
     34 C         141.1764  145.7320  163.0177 C.3     1  UNL1        0.0318
     35 O         139.3932  145.4605  163.6997 O.3     1  UNL1       -0.3844
     36 H         142.5013  145.7836  162.3837 H       1  UNL1        0.2104
     37 H         139.9435  146.1860  164.0339 H       1  UNL1        0.2103
@<TRIPOS>BOND
     1    27    26    1
     2    27    28    1
     3    28    29    1
     4    29    20    1
     5    20    21   ar
     6    21    22   ar
     7    22    23   ar
     8    23    24   ar
     9    24    25   ar
    10    25     1    1
    11     1     2   am
    12     2     3    2
    13     2     5    1
    14     5     6   ar
    15     6     7   ar
    16     7     8   ar
    17     8     9    1
    18     8    10   ar
    19    10    12    1
    20    12    13   ar
    21    13    14    1
    22    13    15   ar
    23    15    16   ar
    24    16    17   ar
    25    17    18   ar
    26    18    19    1
    27    10    11   ar
    28    29    30    1
    29    30    31    1
    30    31    32    1
    31    31    33    1
    32    33    34    1
    33    33    35    1
    34    33    27    1
    35    25    20   ar
    36    11     5   ar
    37    18    12   ar
    38     1     4    1
    39    32    36    1
    40    35    37    1
@<TRIPOS>MOLECULE
*****
 37 40 0 0 0
SMALL
GASTEIGER

@<TRIPOS>ATOM
      1 N         142.3547  140.2082  160.2157 N.am    1  UNL1       -0.2782
      2 C         142.8683  139.5724  161.4735 C.2     1  UNL1        0.2673
      3 O         144.3456  139.4626  161.7093 O.2     1  UNL1       -0.2682
      4 H         141.3851  140.2802  160.0610 H       1  UNL1        0.1553
      5 C         141.9046  139.0463  162.4956 C.ar    1  UNL1        0.1349
      6 C         140.8524  138.0555  162.0942 C.ar    1  UNL1        0.0261
      7 C         139.8887  137.5294  163.1162 C.ar    1  UNL1        0.0329
      8 C         139.9772  137.9943  164.5396 C.ar    1  UNL1        0.1578
      9 F         139.0134  137.4682  165.5617 F       1  UNL1       -0.2026
     10 C         141.0293  138.9852  164.9410 C.ar    1  UNL1        0.1131
     11 N         141.9931  139.5112  163.9190 N.ar    1  UNL1       -0.2384
     12 C         141.1178  139.4500  166.3644 C.ar    1  UNL1        0.0747
     13 C         139.9625  140.1737  166.9902 C.ar    1  UNL1        0.1438
     14 F         138.7189  140.4327  166.1926 F       1  UNL1       -0.2040
     15 C         140.0510  140.6386  168.4137 C.ar    1  UNL1        0.0298
     16 C         141.2947  140.3797  169.2113 C.ar    1  UNL1        0.0046
     17 C         142.4499  139.6559  168.5855 C.ar    1  UNL1        0.0298
     18 C         142.3615  139.1911  167.1621 C.ar    1  UNL1        0.1438
     19 F         143.5167  138.4674  166.5363 F       1  UNL1       -0.2040
     20 C         143.7695  142.1635  159.2540 C.ar    1  UNL1       -0.0059
     21 C         144.7333  142.6895  158.2320 C.ar    1  UNL1        0.0176
     22 C         145.2458  141.7863  157.1496 C.ar    1  UNL1        0.0987
     23 N         144.7947  140.3570  157.0893 N.ar    1  UNL1       -0.2410
     24 C         143.8310  139.8309  158.1113 C.ar    1  UNL1        0.1132
     25 C         143.3184  140.7342  159.1937 C.ar    1  UNL1        0.0660
     26 C         140.2631  145.5945  160.9666 C.3     1  UNL1        0.0025
     27 C         141.5038  144.7823  161.1926 C.3     1  UNL1        0.0273
     28 C         142.0163  143.8790  160.1103 C.3     1  UNL1        0.0069
     29 C         143.2570  143.0668  160.3363 C.3     1  UNL1        0.0262
     30 C         143.9850  143.1578  161.6446 C.3     1  UNL1        0.0360
     31 C         143.4725  144.0610  162.7269 C.3     1  UNL1        0.1352
     32 O         144.2005  144.1521  164.0352 O.3     1  UNL1       -0.3821
     33 C         142.2318  144.8733  162.5009 C.3     1  UNL1        0.1128
     34 C         142.5698  145.2975  163.8993 C.3     1  UNL1        0.0318
     35 O         141.1086  145.8329  162.7606 O.3     1  UNL1       -0.3844
     36 H         143.7403  144.7755  164.6186 H       1  UNL1        0.2104
     37 H         141.1965  146.1992  163.6545 H       1  UNL1        0.2103
@<TRIPOS>BOND
     1    27    26    1
     2    27    28    1
     3    28    29    1
     4    29    20    1
     5    20    21   ar
     6    21    22   ar
     7    22    23   ar
     8    23    24   ar
     9    24    25   ar
    10    25     1    1
    11     1     2   am
    12     2     3    2
    13     2     5    1
    14     5     6   ar
    15     6     7   ar
    16     7     8   ar
    17     8     9    1
    18     8    10   ar
    19    10    12    1
    20    12    13   ar
    21    13    14    1
    22    13    15   ar
    23    15    16   ar
    24    16    17   ar
    25    17    18   ar
    26    18    19    1
    27    10    11   ar
    28    29    30    1
    29    30    31    1
    30    31    32    1
    31    31    33    1
    32    33    34    1
    33    33    35    1
    34    33    27    1
    35    25    20   ar
    36    11     5   ar
    37    18    12   ar
    38     1     4    1
    39    32    36    1
    40    35    37    1
@<TRIPOS>MOLECULE
*****
 37 40 0 0 0
SMALL
GASTEIGER

@<TRIPOS>ATOM
      1 N         142.7088  140.1847  160.8805 N.am    1  UNL1       -0.2782
      2 C         141.2597  139.8016  160.8208 C.2     1  UNL1        0.2673
      3 O         140.4720  140.0400  159.5668 O.2     1  UNL1       -0.2682
      4 H         143.2258  140.0283  161.7036 H       1  UNL1        0.1553
      5 C         140.5984  139.1802  162.0152 C.ar    1  UNL1        0.1349
      6 C         139.4624  138.2188  161.8279 C.ar    1  UNL1        0.0261
      7 C         138.8012  137.5973  163.0223 C.ar    1  UNL1        0.0329
      8 C         139.2760  137.9373  164.4040 C.ar    1  UNL1        0.1578
      9 F         138.6147  137.3158  165.5983 F       1  UNL1       -0.2026
     10 C         140.4120  138.8987  164.5913 C.ar    1  UNL1        0.1131
     11 N         141.0733  139.5202  163.3969 N.ar    1  UNL1       -0.2384
     12 C         140.8868  139.2387  165.9729 C.ar    1  UNL1        0.0747
     13 C         142.2952  138.9225  166.3810 C.ar    1  UNL1        0.1438
     14 F         143.2288  138.2664  165.4075 F       1  UNL1       -0.2040
     15 C         142.7699  139.2625  167.7627 C.ar    1  UNL1        0.0298
     16 C         141.8363  139.9186  168.7363 C.ar    1  UNL1        0.0046
     17 C         140.4279  140.2347  168.3282 C.ar    1  UNL1        0.0298
     18 C         139.9532  139.8948  166.9466 C.ar    1  UNL1        0.1438
     19 F         138.5448  140.2109  166.5385 F       1  UNL1       -0.2040
     20 C         143.3600  142.2962  159.5139 C.ar    1  UNL1       -0.0059
     21 C         144.0212  142.9177  158.3196 C.ar    1  UNL1        0.0176
     22 C         144.6925  142.0491  157.2974 C.ar    1  UNL1        0.0987
     23 N         144.7026  140.5590  157.4695 N.ar    1  UNL1       -0.2410
     24 C         144.0413  139.9375  158.6639 C.ar    1  UNL1        0.1132
     25 C         143.3700  140.8062  159.6861 C.ar    1  UNL1        0.0660
     26 C         143.5796  145.0803  163.8958 C.3     1  UNL1        0.0025
     27 C         142.7985  144.5569  162.7271 C.3     1  UNL1        0.0273
     28 C         143.4698  143.6883  161.7049 C.3     1  UNL1        0.0069
     29 C         142.6887  143.1649  160.5362 C.3     1  UNL1        0.0262
     30 C         141.2363  143.5100  160.3896 C.3     1  UNL1        0.0360
     31 C         140.5651  144.3787  161.4118 C.3     1  UNL1        0.1352
     32 O         139.1127  144.7239  161.2653 O.3     1  UNL1       -0.3821
     33 C         141.3462  144.9021  162.5806 C.3     1  UNL1        0.1128
     34 C         140.0031  145.5013  162.8755 C.3     1  UNL1        0.0318
     35 O         141.6608  145.6336  163.8517 O.3     1  UNL1       -0.3844
     36 H         138.8383  145.2883  162.0050 H       1  UNL1        0.2104
     37 H         140.8633  146.0837  164.1716 H       1  UNL1        0.2103
@<TRIPOS>BOND
     1    27    26    1
     2    27    28    1
     3    28    29    1
     4    29    20    1
     5    20    21   ar
     6    21    22   ar
     7    22    23   ar
     8    23    24   ar
     9    24    25   ar
    10    25     1    1
    11     1     2   am
    12     2     3    2
    13     2     5    1
    14     5     6   ar
    15     6     7   ar
    16     7     8   ar
    17     8     9    1
    18     8    10   ar
    19    10    12    1
    20    12    13   ar
    21    13    14    1
    22    13    15   ar
    23    15    16   ar
    24    16    17   ar
    25    17    18   ar
    26    18    19    1
    27    10    11   ar
    28    29    30    1
    29    30    31    1
    30    31    32    1
    31    31    33    1
    32    33    34    1
    33    33    35    1
    34    33    27    1
    35    25    20   ar
    36    11     5   ar
    37    18    12   ar
    38     1     4    1
    39    32    36    1
    40    35    37    1
@<TRIPOS>MOLECULE
*****
 37 40 0 0 0
SMALL
GASTEIGER

@<TRIPOS>ATOM
      1 N         139.7099  141.6373  159.7366 N.am    1  UNL1       -0.2782
      2 C         138.7709  141.6344  160.9064 C.2     1  UNL1        0.2673
      3 O         137.8053  142.7665  161.0958 O.2     1  UNL1       -0.2682
      4 H         140.3437  140.8943  159.6122 H       1  UNL1        0.1553
      5 C         138.7977  140.4995  161.8867 C.ar    1  UNL1        0.1349
      6 C         138.3194  139.1394  161.4727 C.ar    1  UNL1        0.0261
      7 C         138.3462  138.0044  162.4531 C.ar    1  UNL1        0.0329
      8 C         138.8512  138.2295  163.8474 C.ar    1  UNL1        0.1578
      9 F         138.8779  137.0945  164.8278 F       1  UNL1       -0.2026
     10 C         139.3295  139.5896  164.2615 C.ar    1  UNL1        0.1131
     11 N         139.3028  140.7246  163.2811 N.ar    1  UNL1       -0.2384
     12 C         139.8345  139.8147  165.6558 C.ar    1  UNL1        0.0747
     13 C         138.9131  139.6342  166.8256 C.ar    1  UNL1        0.1438
     14 F         137.4865  139.2286  166.6010 F       1  UNL1       -0.2040
     15 C         139.4182  139.8593  168.2200 C.ar    1  UNL1        0.0298
     16 C         140.8447  140.2649  168.4446 C.ar    1  UNL1        0.0046
     17 C         141.7662  140.4454  167.2749 C.ar    1  UNL1        0.0298
     18 C         141.2611  140.2203  165.8805 C.ar    1  UNL1        0.1438
     19 F         142.1826  140.4008  164.7108 F       1  UNL1       -0.2040
     20 C         140.5330  143.9859  158.9905 C.ar    1  UNL1       -0.0059
     21 C         140.5062  145.1209  158.0101 C.ar    1  UNL1        0.0176
     22 C         139.6297  145.0423  156.7955 C.ar    1  UNL1        0.0987
     23 N         138.7798  143.8286  156.5612 N.ar    1  UNL1       -0.2410
     24 C         138.8065  142.6937  157.5415 C.ar    1  UNL1        0.1132
     25 C         139.6832  142.7723  158.7562 C.ar    1  UNL1        0.0660
     26 C         144.8846  142.6454  161.4939 C.3     1  UNL1        0.0025
     27 C         143.5854  143.3943  161.4568 C.3     1  UNL1        0.0273
     28 C         142.7088  143.3157  160.2422 C.3     1  UNL1        0.0069
     29 C         141.4096  144.0646  160.2052 C.3     1  UNL1        0.0262
     30 C         140.9871  144.8921  161.3827 C.3     1  UNL1        0.0360
     31 C         141.8638  144.9707  162.5973 C.3     1  UNL1        0.1352
     32 O         141.4413  145.7983  163.7749 O.3     1  UNL1       -0.3821
     33 C         143.1629  144.2218  162.6343 C.3     1  UNL1        0.1128
     34 C         143.1955  144.8671  163.9881 C.3     1  UNL1        0.0318
     35 O         144.4733  143.6970  163.1416 O.3     1  UNL1       -0.3844
     36 H         142.1161  145.7407  164.4693 H       1  UNL1        0.2104
     37 H         144.6351  144.0399  164.0345 H       1  UNL1        0.2103
@<TRIPOS>BOND
     1    27    26    1
     2    27    28    1
     3    28    29    1
     4    29    20    1
     5    20    21   ar
     6    21    22   ar
     7    22    23   ar
     8    23    24   ar
     9    24    25   ar
    10    25     1    1
    11     1     2   am
    12     2     3    2
    13     2     5    1
    14     5     6   ar
    15     6     7   ar
    16     7     8   ar
    17     8     9    1
    18     8    10   ar
    19    10    12    1
    20    12    13   ar
    21    13    14    1
    22    13    15   ar
    23    15    16   ar
    24    16    17   ar
    25    17    18   ar
    26    18    19    1
    27    10    11   ar
    28    29    30    1
    29    30    31    1
    30    31    32    1
    31    31    33    1
    32    33    34    1
    33    33    35    1
    34    33    27    1
    35    25    20   ar
    36    11     5   ar
    37    18    12   ar
    38     1     4    1
    39    32    36    1
    40    35    37    1
