@<TRIPOS>MOLECULE
*****
 35 40 0 0 0
SMALL
GASTEIGER

@<TRIPOS>ATOM
      1 C         142.2445  142.8054  161.9413 C.ar    1  UNL1        0.1534
      2 N         143.2784  143.8176  161.5458 N.ar    1  UNL1       -0.1329
      3 N         144.1900  144.4031  162.5831 N.ar    1  UNL1       -0.1452
      4 C         144.0677  143.9765  164.0159 C.ar    1  UNL1        0.1222
      5 C         143.0338  142.9643  164.4115 C.ar    1  UNL1        0.0237
      6 C         142.9115  142.5377  165.8443 C.ar    1  UNL1        0.0018
      7 C         141.8776  141.5255  166.2398 C.ar    1  UNL1        0.0028
      8 C         140.9659  140.9399  165.2025 C.ar    1  UNL1        0.0002
      9 C         141.0882  141.3665  163.7696 C.ar    1  UNL1        0.0029
     10 C         142.1222  142.3788  163.3741 C.ar    1  UNL1        0.0349
     11 C         137.3495  141.1921  157.3932 C.3     1  UNL1        0.0948
     12 C         138.5981  140.4629  157.7920 C.2     1  UNL1        0.2262
     13 O         138.9352  139.1481  157.1535 O.2     1  UNL1       -0.2749
     14 N         139.5097  141.0485  158.8293 N.am    1  UNL1       -0.2761
     15 C         139.1726  142.3633  159.4678 C.3     1  UNL1        0.1149
     16 C         140.0843  142.9489  160.5051 C.3     1  UNL1        0.1137
     17 N         141.3329  142.2198  160.9039 N.pl3   1  UNL1       -0.2900
     18 C         141.6700  140.9049  160.2655 C.3     1  UNL1        0.0941
     19 C         142.9187  140.1758  160.6644 C.3     1  UNL1        0.0233
     20 C         140.7584  140.3193  159.2282 C.3     1  UNL1        0.1131
     21 C         141.7552  141.0989  167.6726 C.ar    1  UNL1        0.0333
     22 C         140.9519  141.9230  168.6346 C.ar    1  UNL1       -0.0188
     23 C         140.2709  143.1737  168.1637 C.3     1  UNL1        0.0311
     24 C         140.8296  141.4964  170.0674 C.ar    1  UNL1       -0.0040
     25 C         141.5106  140.2456  170.5383 C.ar    1  UNL1        0.0057
     26 C         142.3140  139.4214  169.5764 C.ar    1  UNL1        0.0717
     27 C         143.0913  138.1503  169.7495 C.ar    1  UNL1        0.1704
     28 N         143.6940  137.7913  168.4237 N.ar    1  UNL1       -0.0621
     29 O         143.2892  138.8405  167.4311 O.2     1  UNL1       -0.3522
     30 C         142.4363  139.8481  168.1435 C.ar    1  UNL1        0.1777
     31 N         143.2398  137.3743  171.0246 N.pl3   1  UNL1       -0.3171
     32 H         142.5993  137.5089  171.7601 H       1  UNL1        0.1482
     33 C         144.3641  136.3935  171.1791 C.3     1  UNL1        0.0706
     34 C         144.8413  134.9906  171.4118 C.3     1  UNL1        0.0212
     35 C         145.8342  136.0975  171.2139 C.3     1  UNL1        0.0212
@<TRIPOS>BOND
     1    11    12    1
     2    12    13    2
     3    12    14   am
     4    14    15    1
     5    15    16    1
     6    16    17    1
     7    17     1    1
     8     1     2   ar
     9     2     3   ar
    10     3     4   ar
    11     4     5   ar
    12     5     6   ar
    13     6     7   ar
    14     7    21    1
    15    21    22   ar
    16    22    23    1
    17    22    24   ar
    18    24    25   ar
    19    25    26   ar
    20    26    27   ar
    21    27    31    1
    22    31    33    1
    23    33    34    1
    24    34    35    1
    25    27    28   ar
    26    28    29   ar
    27    29    30   ar
    28     7     8   ar
    29     8     9   ar
    30     9    10   ar
    31    17    18    1
    32    18    19    1
    33    18    20    1
    34    20    14    1
    35    10     1   ar
    36    10     5   ar
    37    30    21   ar
    38    30    26   ar
    39    35    33    1
    40    31    32    1
@<TRIPOS>MOLECULE
*****
 35 40 0 0 0
SMALL
GASTEIGER

@<TRIPOS>ATOM
      1 C         142.5129  140.5486  164.7689 C.ar    1  UNL1        0.1534
      2 N         143.7754  139.7390  164.7916 N.ar    1  UNL1       -0.1329
      3 N         144.5093  139.4583  163.5139 N.ar    1  UNL1       -0.1452
      4 C         143.9807  139.9870  162.2136 C.ar    1  UNL1        0.1222
      5 C         142.7181  140.7966  162.1909 C.ar    1  UNL1        0.0237
      6 C         142.1894  141.3253  160.8906 C.ar    1  UNL1        0.0018
      7 C         140.9269  142.1349  160.8679 C.ar    1  UNL1        0.0028
      8 C         140.1929  142.4157  162.1456 C.ar    1  UNL1        0.0002
      9 C         140.7216  141.8869  163.4460 C.ar    1  UNL1        0.0029
     10 C         141.9842  141.0773  163.4686 C.ar    1  UNL1        0.0349
     11 C         139.9419  142.8688  170.7067 C.3     1  UNL1        0.0948
     12 C         139.5770  141.6717  169.8797 C.2     1  UNL1        0.2262
     13 O         138.4783  140.7554  170.3304 O.2     1  UNL1       -0.2749
     14 N         140.3110  141.3909  168.6021 N.am    1  UNL1       -0.2761
     15 C         141.4098  142.3072  168.1514 C.3     1  UNL1        0.1149
     16 C         142.1437  142.0264  166.8736 C.3     1  UNL1        0.1137
     17 N         141.7789  140.8294  166.0467 N.pl3   1  UNL1       -0.2900
     18 C         140.6802  139.9131  166.4974 C.3     1  UNL1        0.0941
     19 C         140.3154  138.7160  165.6703 C.3     1  UNL1        0.0233
     20 C         139.9462  140.1938  167.7750 C.3     1  UNL1        0.1131
     21 C         140.3982  142.6636  159.5675 C.ar    1  UNL1        0.0333
     22 C         139.2446  141.9814  158.8940 C.ar    1  UNL1       -0.0188
     23 C         138.6197  140.7704  159.5207 C.3     1  UNL1        0.0311
     24 C         138.7160  142.5102  157.5936 C.ar    1  UNL1       -0.0040
     25 C         139.3409  143.7212  156.9668 C.ar    1  UNL1        0.0057
     26 C         140.4945  144.4035  157.6404 C.ar    1  UNL1        0.0717
     27 C         141.3078  145.6065  157.2643 C.ar    1  UNL1        0.1704
     28 N         142.3390  145.8212  158.3322 N.ar    1  UNL1       -0.0621
     29 O         142.1632  144.7509  159.3683 O.2     1  UNL1       -0.3522
     30 C         141.0232  143.8747  158.9408 C.ar    1  UNL1        0.1777
     31 N         141.1223  146.4471  156.0359 N.pl3   1  UNL1       -0.3171
     32 H         141.8907  146.6421  155.4522 H       1  UNL1        0.1482
     33 C         139.7660  146.9908  155.6969 C.3     1  UNL1        0.0706
     34 C         138.7939  148.1328  155.6696 C.3     1  UNL1        0.0212
     35 C         138.3889  146.7903  155.1371 C.3     1  UNL1        0.0212
@<TRIPOS>BOND
     1    11    12    1
     2    12    13    2
     3    12    14   am
     4    14    15    1
     5    15    16    1
     6    16    17    1
     7    17     1    1
     8     1     2   ar
     9     2     3   ar
    10     3     4   ar
    11     4     5   ar
    12     5     6   ar
    13     6     7   ar
    14     7    21    1
    15    21    22   ar
    16    22    23    1
    17    22    24   ar
    18    24    25   ar
    19    25    26   ar
    20    26    27   ar
    21    27    31    1
    22    31    33    1
    23    33    34    1
    24    34    35    1
    25    27    28   ar
    26    28    29   ar
    27    29    30   ar
    28     7     8   ar
    29     8     9   ar
    30     9    10   ar
    31    17    18    1
    32    18    19    1
    33    18    20    1
    34    20    14    1
    35    10     1   ar
    36    10     5   ar
    37    30    21   ar
    38    30    26   ar
    39    35    33    1
    40    31    32    1
@<TRIPOS>MOLECULE
*****
 35 40 0 0 0
SMALL
GASTEIGER

@<TRIPOS>ATOM
      1 C         140.2156  139.1527  164.7161 C.ar    1  UNL1        0.1534
      2 N         139.2880  137.9822  164.5771 N.ar    1  UNL1       -0.1329
      3 N         138.7892  137.5775  163.2216 N.ar    1  UNL1       -0.1452
      4 C         139.2179  138.3433  162.0052 C.ar    1  UNL1        0.1222
      5 C         140.1456  139.5138  162.1442 C.ar    1  UNL1        0.0237
      6 C         140.5744  140.2796  160.9278 C.ar    1  UNL1        0.0018
      7 C         141.5020  141.4501  161.0669 C.ar    1  UNL1        0.0028
      8 C         142.0009  141.8549  162.4224 C.ar    1  UNL1        0.0002
      9 C         141.5721  141.0891  163.6388 C.ar    1  UNL1        0.0029
     10 C         140.6444  139.9185  163.4997 C.ar    1  UNL1        0.0349
     11 C         141.3576  141.6268  171.0269 C.3     1  UNL1        0.0948
     12 C         142.2113  140.7717  170.1380 C.2     1  UNL1        0.2262
     13 O         143.5638  140.3213  170.6046 O.2     1  UNL1       -0.2749
     14 N         141.7124  140.3670  168.7826 N.am    1  UNL1       -0.2761
     15 C         140.3598  140.8173  168.3160 C.3     1  UNL1        0.1149
     16 C         139.8609  140.4126  166.9605 C.3     1  UNL1        0.1137
     17 N         140.7145  139.5575  166.0717 N.pl3   1  UNL1       -0.2900
     18 C         142.0671  139.1071  166.5383 C.3     1  UNL1        0.0941
     19 C         142.9208  138.2520  165.6493 C.3     1  UNL1        0.0233
     20 C         142.5660  139.5118  167.8937 C.3     1  UNL1        0.1131
     21 C         141.9308  142.2159  159.8504 C.ar    1  UNL1        0.0333
     22 C         143.0487  141.6990  158.9943 C.ar    1  UNL1       -0.0188
     23 C         143.7379  140.4164  159.3545 C.3     1  UNL1        0.0311
     24 C         143.4775  142.4648  157.7778 C.ar    1  UNL1       -0.0040
     25 C         142.7884  143.7475  157.4176 C.ar    1  UNL1        0.0057
     26 C         141.6704  144.2644  158.2737 C.ar    1  UNL1        0.0717
     27 C         140.8106  145.4892  158.1702 C.ar    1  UNL1        0.1704
     28 N         139.8505  145.4803  159.3225 N.ar    1  UNL1       -0.0621
     29 O         140.1168  144.2501  160.1383 O.2     1  UNL1       -0.3522
     30 C         141.2416  143.4986  159.4902 C.ar    1  UNL1        0.1777
     31 N         140.8960  146.5386  157.1017 N.pl3   1  UNL1       -0.3171
     32 H         141.6866  147.1228  157.0477 H       1  UNL1        0.1482
     33 C         139.7770  146.6977  156.1157 C.3     1  UNL1        0.0706
     34 C         139.0546  147.5234  155.0926 C.3     1  UNL1        0.0212
     35 C         138.5610  146.1479  155.4308 C.3     1  UNL1        0.0212
@<TRIPOS>BOND
     1    11    12    1
     2    12    13    2
     3    12    14   am
     4    14    15    1
     5    15    16    1
     6    16    17    1
     7    17     1    1
     8     1     2   ar
     9     2     3   ar
    10     3     4   ar
    11     4     5   ar
    12     5     6   ar
    13     6     7   ar
    14     7    21    1
    15    21    22   ar
    16    22    23    1
    17    22    24   ar
    18    24    25   ar
    19    25    26   ar
    20    26    27   ar
    21    27    31    1
    22    31    33    1
    23    33    34    1
    24    34    35    1
    25    27    28   ar
    26    28    29   ar
    27    29    30   ar
    28     7     8   ar
    29     8     9   ar
    30     9    10   ar
    31    17    18    1
    32    18    19    1
    33    18    20    1
    34    20    14    1
    35    10     1   ar
    36    10     5   ar
    37    30    21   ar
    38    30    26   ar
    39    35    33    1
    40    31    32    1
@<TRIPOS>MOLECULE
*****
 35 40 0 0 0
SMALL
GASTEIGER

@<TRIPOS>ATOM
      1 C         140.1878  139.1834  164.6172 C.ar    1  UNL1        0.1534
      2 N         139.3077  137.9919  164.3813 N.ar    1  UNL1       -0.1329
      3 N         138.8238  137.6793  162.9964 N.ar    1  UNL1       -0.1452
      4 C         139.2200  138.5583  161.8473 C.ar    1  UNL1        0.1222
      5 C         140.1000  139.7499  162.0831 C.ar    1  UNL1        0.0237
      6 C         140.4962  140.6289  160.9340 C.ar    1  UNL1        0.0018
      7 C         141.3762  141.8204  161.1699 C.ar    1  UNL1        0.0028
      8 C         141.8602  142.1330  162.5549 C.ar    1  UNL1        0.0002
      9 C         141.4640  141.2540  163.7040 C.ar    1  UNL1        0.0029
     10 C         140.5839  140.0624  163.4681 C.ar    1  UNL1        0.0349
     11 C         141.2389  141.1819  171.1096 C.3     1  UNL1        0.0948
     12 C         142.1236  140.4338  170.1570 C.2     1  UNL1        0.2262
     13 O         143.4924  139.9983  170.5893 O.2     1  UNL1       -0.2749
     14 N         141.6397  140.1212  168.7721 N.am    1  UNL1       -0.2761
     15 C         140.2709  140.5568  168.3398 C.3     1  UNL1        0.1149
     16 C         139.7870  140.2442  166.9548 C.3     1  UNL1        0.1137
     17 N         140.6717  139.4961  166.0022 N.pl3   1  UNL1       -0.2900
     18 C         142.0405  139.0605  166.4345 C.3     1  UNL1        0.0941
     19 C         142.9252  138.3124  165.4818 C.3     1  UNL1        0.0233
     20 C         142.5244  139.3731  167.8194 C.3     1  UNL1        0.1131
     21 C         141.7724  142.6994  160.0208 C.ar    1  UNL1        0.0333
     22 C         141.0839  144.0155  159.8112 C.ar    1  UNL1       -0.0188
     23 C         139.9994  144.4526  160.7506 C.3     1  UNL1        0.0311
     24 C         141.4801  144.8945  158.6621 C.ar    1  UNL1       -0.0040
     25 C         142.5647  144.4574  157.7226 C.ar    1  UNL1        0.0057
     26 C         143.2531  143.1413  157.9322 C.ar    1  UNL1        0.0717
     27 C         144.3491  142.4502  157.1763 C.ar    1  UNL1        0.1704
     28 N         144.6303  141.1442  157.8583 N.ar    1  UNL1       -0.0621
     29 O         143.7081  141.0280  159.0356 O.2     1  UNL1       -0.3522
     30 C         142.8570  142.2623  159.0813 C.ar    1  UNL1        0.1777
     31 N         145.0422  142.9734  155.9533 N.pl3   1  UNL1       -0.3171
     32 H         144.5810  143.6100  155.3606 H       1  UNL1        0.1482
     33 C         146.4379  142.5267  155.6333 C.3     1  UNL1        0.0706
     34 C         147.8418  142.2357  156.0739 C.3     1  UNL1        0.0212
     35 C         147.4514  142.0440  154.6384 C.3     1  UNL1        0.0212
@<TRIPOS>BOND
     1    11    12    1
     2    12    13    2
     3    12    14   am
     4    14    15    1
     5    15    16    1
     6    16    17    1
     7    17     1    1
     8     1     2   ar
     9     2     3   ar
    10     3     4   ar
    11     4     5   ar
    12     5     6   ar
    13     6     7   ar
    14     7    21    1
    15    21    22   ar
    16    22    23    1
    17    22    24   ar
    18    24    25   ar
    19    25    26   ar
    20    26    27   ar
    21    27    31    1
    22    31    33    1
    23    33    34    1
    24    34    35    1
    25    27    28   ar
    26    28    29   ar
    27    29    30   ar
    28     7     8   ar
    29     8     9   ar
    30     9    10   ar
    31    17    18    1
    32    18    19    1
    33    18    20    1
    34    20    14    1
    35    10     1   ar
    36    10     5   ar
    37    30    21   ar
    38    30    26   ar
    39    35    33    1
    40    31    32    1
@<TRIPOS>MOLECULE
*****
 35 40 0 0 0
SMALL
GASTEIGER

@<TRIPOS>ATOM
      1 C         139.9988  143.5488  162.0959 C.ar    1  UNL1        0.1534
      2 N         139.3569  144.9043  162.0739 N.ar    1  UNL1       -0.1329
      3 N         139.5776  145.8197  160.9063 N.ar    1  UNL1       -0.1452
      4 C         140.4401  145.3795  159.7608 C.ar    1  UNL1        0.1222
      5 C         141.0819  144.0240  159.7828 C.ar    1  UNL1        0.0237
      6 C         141.9444  143.5839  158.6372 C.ar    1  UNL1        0.0018
      7 C         142.5863  142.2284  158.6592 C.ar    1  UNL1        0.0028
      8 C         142.3657  141.3129  159.8268 C.ar    1  UNL1        0.0002
      9 C         141.5032  141.7530  160.9724 C.ar    1  UNL1        0.0029
     10 C         140.8613  143.1086  160.9503 C.ar    1  UNL1        0.0349
     11 C         137.9812  138.9068  166.7469 C.3     1  UNL1        0.0948
     12 C         139.1164  139.8870  166.7664 C.2     1  UNL1        0.2262
     13 O         140.0310  139.9518  167.9535 O.2     1  UNL1       -0.2749
     14 N         139.3370  140.8024  165.5988 N.am    1  UNL1       -0.2761
     15 C         138.4224  140.7376  164.4117 C.3     1  UNL1        0.1149
     16 C         138.6430  141.6531  163.2441 C.3     1  UNL1        0.1137
     17 N         139.7782  142.6333  163.2636 N.pl3   1  UNL1       -0.2900
     18 C         140.6928  142.6981  164.4507 C.3     1  UNL1        0.0941
     19 C         141.8280  143.6784  164.4702 C.3     1  UNL1        0.0233
     20 C         140.4722  141.7827  165.6183 C.3     1  UNL1        0.1131
     21 C         143.4488  141.7883  157.5136 C.ar    1  UNL1        0.0333
     22 C         142.8622  140.9627  156.4071 C.ar    1  UNL1       -0.0188
     23 C         141.4131  140.5774  156.4462 C.3     1  UNL1        0.0311
     24 C         143.7247  140.5226  155.2615 C.ar    1  UNL1       -0.0040
     25 C         145.1738  140.9080  155.2224 C.ar    1  UNL1        0.0057
     26 C         145.7605  141.7335  156.3289 C.ar    1  UNL1        0.0717
     27 C         147.1448  142.2625  156.5611 C.ar    1  UNL1        0.1704
     28 N         147.1378  143.0294  157.8501 N.ar    1  UNL1       -0.0621
     29 O         145.7493  142.9746  158.4147 O.2     1  UNL1       -0.3522
     30 C         144.8980  142.1737  157.4745 C.ar    1  UNL1        0.1777
     31 N         148.3283  142.0599  155.6620 N.pl3   1  UNL1       -0.3171
     32 H         149.1171  141.5703  155.9894 H       1  UNL1        0.1482
     33 C         148.3099  142.6034  154.2640 C.3     1  UNL1        0.0706
     34 C         147.8358  142.5185  152.8434 C.3     1  UNL1        0.0212
     35 C         148.7519  143.6296  153.2633 C.3     1  UNL1        0.0212
@<TRIPOS>BOND
     1    11    12    1
     2    12    13    2
     3    12    14   am
     4    14    15    1
     5    15    16    1
     6    16    17    1
     7    17     1    1
     8     1     2   ar
     9     2     3   ar
    10     3     4   ar
    11     4     5   ar
    12     5     6   ar
    13     6     7   ar
    14     7    21    1
    15    21    22   ar
    16    22    23    1
    17    22    24   ar
    18    24    25   ar
    19    25    26   ar
    20    26    27   ar
    21    27    31    1
    22    31    33    1
    23    33    34    1
    24    34    35    1
    25    27    28   ar
    26    28    29   ar
    27    29    30   ar
    28     7     8   ar
    29     8     9   ar
    30     9    10   ar
    31    17    18    1
    32    18    19    1
    33    18    20    1
    34    20    14    1
    35    10     1   ar
    36    10     5   ar
    37    30    21   ar
    38    30    26   ar
    39    35    33    1
    40    31    32    1
@<TRIPOS>MOLECULE
*****
 35 40 0 0 0
SMALL
GASTEIGER

@<TRIPOS>ATOM
      1 C         142.3253  141.6118  158.6953 C.ar    1  UNL1        0.1534
      2 N         143.0892  140.5504  157.9606 N.ar    1  UNL1       -0.1329
      3 N         143.8375  139.4995  158.7258 N.ar    1  UNL1       -0.1452
      4 C         143.8219  139.5100  160.2257 C.ar    1  UNL1        0.1222
      5 C         143.0580  140.5714  160.9604 C.ar    1  UNL1        0.0237
      6 C         143.0425  140.5819  162.4602 C.ar    1  UNL1        0.0018
      7 C         142.2786  141.6433  163.1950 C.ar    1  UNL1        0.0028
      8 C         141.5302  142.6943  162.4298 C.ar    1  UNL1        0.0002
      9 C         141.5458  142.6838  160.9299 C.ar    1  UNL1        0.0029
     10 C         142.3097  141.6223  160.1952 C.ar    1  UNL1        0.0349
     11 C         140.0154  147.0950  155.2531 C.3     1  UNL1        0.0948
     12 C         139.3317  145.8156  155.6347 C.2     1  UNL1        0.2262
     13 O         137.8997  145.5871  155.2512 O.2     1  UNL1       -0.2749
     14 N         140.0801  144.7647  156.3998 N.am    1  UNL1       -0.2761
     15 C         141.5122  144.9932  156.7833 C.3     1  UNL1        0.1149
     16 C         142.2605  143.9422  157.5485 C.3     1  UNL1        0.1137
     17 N         141.5769  142.6628  157.9301 N.pl3   1  UNL1       -0.2900
     18 C         140.1449  142.4343  157.5466 C.3     1  UNL1        0.0941
     19 C         139.4612  141.1548  157.9283 C.3     1  UNL1        0.0233
     20 C         139.3965  143.4852  156.7815 C.3     1  UNL1        0.1131
     21 C         142.2630  141.6538  164.6948 C.ar    1  UNL1        0.0333
     22 C         143.3333  142.3837  165.4509 C.ar    1  UNL1       -0.0188
     23 C         144.4192  143.1031  164.7071 C.3     1  UNL1        0.0311
     24 C         143.3177  142.3942  166.9508 C.ar    1  UNL1       -0.0040
     25 C         142.2319  141.6748  167.6946 C.ar    1  UNL1        0.0057
     26 C         141.1615  140.9448  166.9385 C.ar    1  UNL1        0.0717
     27 C         139.9727  140.1522  167.3953 C.ar    1  UNL1        0.1704
     28 N         139.2537  139.6519  166.1777 N.ar    1  UNL1       -0.0621
     29 O         139.9979  140.1352  164.9685 O.2     1  UNL1       -0.3522
     30 C         141.1771  140.9343  165.4387 C.ar    1  UNL1        0.1777
     31 N         139.5733  139.9036  168.8196 N.pl3   1  UNL1       -0.3171
     32 H         139.0998  139.0747  169.0605 H       1  UNL1        0.1482
     33 C         139.8952  140.9179  169.8768 C.3     1  UNL1        0.0706
     34 C         139.6806  142.2714  170.4867 C.3     1  UNL1        0.0212
     35 C         140.6672  141.3212  171.0979 C.3     1  UNL1        0.0212
@<TRIPOS>BOND
     1    11    12    1
     2    12    13    2
     3    12    14   am
     4    14    15    1
     5    15    16    1
     6    16    17    1
     7    17     1    1
     8     1     2   ar
     9     2     3   ar
    10     3     4   ar
    11     4     5   ar
    12     5     6   ar
    13     6     7   ar
    14     7    21    1
    15    21    22   ar
    16    22    23    1
    17    22    24   ar
    18    24    25   ar
    19    25    26   ar
    20    26    27   ar
    21    27    31    1
    22    31    33    1
    23    33    34    1
    24    34    35    1
    25    27    28   ar
    26    28    29   ar
    27    29    30   ar
    28     7     8   ar
    29     8     9   ar
    30     9    10   ar
    31    17    18    1
    32    18    19    1
    33    18    20    1
    34    20    14    1
    35    10     1   ar
    36    10     5   ar
    37    30    21   ar
    38    30    26   ar
    39    35    33    1
    40    31    32    1
@<TRIPOS>MOLECULE
*****
 35 40 0 0 0
SMALL
GASTEIGER

@<TRIPOS>ATOM
      1 C         140.1926  140.7750  158.9093 C.ar    1  UNL1        0.1534
      2 N         139.2680  141.7188  158.1990 N.ar    1  UNL1       -0.1329
      3 N         138.4091  142.6625  158.9874 N.ar    1  UNL1       -0.1452
      4 C         138.4747  142.6625  160.4860 C.ar    1  UNL1        0.1222
      5 C         139.3993  141.7187  161.1962 C.ar    1  UNL1        0.0237
      6 C         139.4649  141.7187  162.6947 C.ar    1  UNL1        0.0018
      7 C         140.3895  140.7750  163.4050 C.ar    1  UNL1        0.0028
      8 C         141.2485  139.8311  162.6166 C.ar    1  UNL1        0.0002
      9 C         141.1828  139.8311  161.1180 C.ar    1  UNL1        0.0029
     10 C         140.2582  140.7750  160.4078 C.ar    1  UNL1        0.0349
     11 C         143.0900  135.6618  155.3442 C.3     1  UNL1        0.0948
     12 C         143.6285  136.9998  155.7559 C.2     1  UNL1        0.2262
     13 O         145.0258  137.3942  155.3794 O.2     1  UNL1       -0.2749
     14 N         142.7695  137.9436  156.5443 N.am    1  UNL1       -0.2761
     15 C         141.3721  137.5493  156.9208 C.3     1  UNL1        0.1149
     16 C         140.5131  138.4931  157.7092 C.3     1  UNL1        0.1137
     17 N         141.0515  139.8312  158.1209 N.pl3   1  UNL1       -0.2900
     18 C         142.4489  140.2255  157.7444 C.3     1  UNL1        0.0941
     19 C         142.9874  141.5637  158.1562 C.3     1  UNL1        0.0233
     20 C         143.3079  139.2818  156.9561 C.3     1  UNL1        0.1131
     21 C         140.4551  140.7749  164.9035 C.ar    1  UNL1        0.0333
     22 C         139.3817  140.0958  165.7012 C.ar    1  UNL1       -0.0188
     23 C         138.2426  139.4166  165.0004 C.3     1  UNL1        0.0311
     24 C         139.4473  140.0957  167.1998 C.ar    1  UNL1       -0.0040
     25 C         140.5864  140.7749  167.9006 C.ar    1  UNL1        0.0057
     26 C         141.6599  141.4541  167.1029 C.ar    1  UNL1        0.0717
     27 C         142.8951  142.2000  167.5128 C.ar    1  UNL1        0.1704
     28 N         143.5928  142.6610  166.2675 N.ar    1  UNL1       -0.0621
     29 O         142.7889  142.2001  165.0881 O.2     1  UNL1       -0.3522
     30 C         141.5943  141.4542  165.6043 C.ar    1  UNL1        0.1777
     31 N         143.3522  142.4424  168.9207 N.pl3   1  UNL1       -0.3171
     32 H         143.9311  143.2122  169.1247 H       1  UNL1        0.1482
     33 C         142.9275  141.5118  170.0178 C.3     1  UNL1        0.0706
     34 C         143.0234  140.1802  170.7016 C.3     1  UNL1        0.0212
     35 C         142.0958  141.2317  171.2343 C.3     1  UNL1        0.0212
@<TRIPOS>BOND
     1    11    12    1
     2    12    13    2
     3    12    14   am
     4    14    15    1
     5    15    16    1
     6    16    17    1
     7    17     1    1
     8     1     2   ar
     9     2     3   ar
    10     3     4   ar
    11     4     5   ar
    12     5     6   ar
    13     6     7   ar
    14     7    21    1
    15    21    22   ar
    16    22    23    1
    17    22    24   ar
    18    24    25   ar
    19    25    26   ar
    20    26    27   ar
    21    27    31    1
    22    31    33    1
    23    33    34    1
    24    34    35    1
    25    27    28   ar
    26    28    29   ar
    27    29    30   ar
    28     7     8   ar
    29     8     9   ar
    30     9    10   ar
    31    17    18    1
    32    18    19    1
    33    18    20    1
    34    20    14    1
    35    10     1   ar
    36    10     5   ar
    37    30    21   ar
    38    30    26   ar
    39    35    33    1
    40    31    32    1
@<TRIPOS>MOLECULE
*****
 35 40 0 0 0
SMALL
GASTEIGER

@<TRIPOS>ATOM
      1 C         141.6052  141.3418  158.2798 C.ar    1  UNL1        0.1534
      2 N         142.7841  140.6911  157.6190 N.ar    1  UNL1       -0.1329
      3 N         143.5938  139.6721  158.3647 N.ar    1  UNL1       -0.1452
      4 C         143.2246  139.3039  159.7711 C.ar    1  UNL1        0.1222
      5 C         142.0457  139.9545  160.4319 C.ar    1  UNL1        0.0237
      6 C         141.6765  139.5863  161.8383 C.ar    1  UNL1        0.0018
      7 C         140.4975  140.2369  162.4991 C.ar    1  UNL1        0.0028
      8 C         139.6877  141.2559  161.7534 C.ar    1  UNL1        0.0002
      9 C         140.0570  141.6242  160.3470 C.ar    1  UNL1        0.0029
     10 C         141.2360  140.9735  159.6862 C.ar    1  UNL1        0.0349
     11 C         138.7662  146.8629  155.3290 C.3     1  UNL1        0.0948
     12 C         138.3660  145.4176  155.2972 C.2     1  UNL1        0.2262
     13 O         137.1561  144.9913  154.5199 O.2     1  UNL1       -0.2749
     14 N         139.1758  144.3987  156.0429 N.am    1  UNL1       -0.2761
     15 C         140.3858  144.8251  156.8202 C.3     1  UNL1        0.1149
     16 C         141.1956  143.8060  157.5659 C.3     1  UNL1        0.1137
     17 N         140.7954  142.3608  157.5341 N.pl3   1  UNL1       -0.2900
     18 C         139.5854  141.9344  156.7568 C.3     1  UNL1        0.0941
     19 C         139.1853  140.4891  156.7251 C.3     1  UNL1        0.0233
     20 C         138.7757  142.9534  156.0112 C.3     1  UNL1        0.1131
     21 C         140.1283  139.8687  163.9055 C.ar    1  UNL1        0.0333
     22 C         139.1782  138.7361  164.1594 C.ar    1  UNL1       -0.0188
     23 C         138.5973  137.9718  163.0069 C.3     1  UNL1        0.0311
     24 C         138.8090  138.3678  165.5659 C.ar    1  UNL1       -0.0040
     25 C         139.3899  139.1321  166.7184 C.ar    1  UNL1        0.0057
     26 C         140.3401  140.2647  166.4645 C.ar    1  UNL1        0.0717
     27 C         141.0667  141.1925  167.3926 C.ar    1  UNL1        0.1704
     28 N         141.8849  142.1342  166.5597 N.ar    1  UNL1       -0.0621
     29 O         141.6641  141.7884  165.1169 O.2     1  UNL1       -0.3522
     30 C         140.7093  140.6330  165.0581 C.ar    1  UNL1        0.1777
     31 N         140.9887  141.1807  168.8905 N.pl3   1  UNL1       -0.3171
     32 H         141.2689  140.3810  169.3917 H       1  UNL1        0.1482
     33 C         140.4837  142.3872  169.6248 C.3     1  UNL1        0.0706
     34 C         140.4176  143.8772  169.7847 C.3     1  UNL1        0.0212
     35 C         139.6751  142.9871  170.7366 C.3     1  UNL1        0.0212
@<TRIPOS>BOND
     1    11    12    1
     2    12    13    2
     3    12    14   am
     4    14    15    1
     5    15    16    1
     6    16    17    1
     7    17     1    1
     8     1     2   ar
     9     2     3   ar
    10     3     4   ar
    11     4     5   ar
    12     5     6   ar
    13     6     7   ar
    14     7    21    1
    15    21    22   ar
    16    22    23    1
    17    22    24   ar
    18    24    25   ar
    19    25    26   ar
    20    26    27   ar
    21    27    31    1
    22    31    33    1
    23    33    34    1
    24    34    35    1
    25    27    28   ar
    26    28    29   ar
    27    29    30   ar
    28     7     8   ar
    29     8     9   ar
    30     9    10   ar
    31    17    18    1
    32    18    19    1
    33    18    20    1
    34    20    14    1
    35    10     1   ar
    36    10     5   ar
    37    30    21   ar
    38    30    26   ar
    39    35    33    1
    40    31    32    1
@<TRIPOS>MOLECULE
*****
 35 40 0 0 0
SMALL
GASTEIGER

@<TRIPOS>ATOM
      1 C         140.6849  141.1276  159.0920 C.ar    1  UNL1        0.1534
      2 N         139.7003  142.0398  158.4224 N.ar    1  UNL1       -0.1329
      3 N         138.9412  143.0483  159.2326 N.ar    1  UNL1       -0.1452
      4 C         139.1666  143.1447  160.7124 C.ar    1  UNL1        0.1222
      5 C         140.1512  142.2325  161.3820 C.ar    1  UNL1        0.0237
      6 C         140.3766  142.3288  162.8619 C.ar    1  UNL1        0.0018
      7 C         141.3612  141.4166  163.5315 C.ar    1  UNL1        0.0028
      8 C         142.1204  140.4080  162.7213 C.ar    1  UNL1        0.0002
      9 C         141.8950  140.3116  161.2415 C.ar    1  UNL1        0.0029
     10 C         140.9103  141.2239  160.5718 C.ar    1  UNL1        0.0349
     11 C         143.1381  135.7327  155.6096 C.3     1  UNL1        0.0948
     12 C         143.7217  137.0932  155.8513 C.2     1  UNL1        0.2262
     13 O         145.0645  137.4451  155.2829 O.2     1  UNL1       -0.2749
     14 N         142.9625  138.1017  156.6615 N.am    1  UNL1       -0.2761
     15 C         141.6197  137.7498  157.2299 C.3     1  UNL1        0.1149
     16 C         140.8605  138.7584  158.0401 C.3     1  UNL1        0.1137
     17 N         141.4441  140.1189  158.2818 N.pl3   1  UNL1       -0.2900
     18 C         142.7869  140.4708  157.7134 C.3     1  UNL1        0.0941
     19 C         143.3705  141.8314  157.9552 C.3     1  UNL1        0.0233
     20 C         143.5461  139.4623  156.9033 C.3     1  UNL1        0.1131
     21 C         141.5866  141.5130  165.0113 C.ar    1  UNL1        0.0333
     22 C         142.7298  142.3246  165.5446 C.ar    1  UNL1       -0.0188
     23 C         143.6475  143.0399  164.5980 C.3     1  UNL1        0.0311
     24 C         142.9552  142.4210  167.0244 C.ar    1  UNL1       -0.0040
     25 C         142.0374  141.7057  167.9710 C.ar    1  UNL1        0.0057
     26 C         140.8942  140.8941  167.4378 C.ar    1  UNL1        0.0717
     27 C         139.8321  140.0854  168.1220 C.ar    1  UNL1        0.1704
     28 N         138.9504  139.4893  167.0651 N.ar    1  UNL1       -0.0621
     29 O         139.4674  139.9295  165.7277 O.2     1  UNL1       -0.3522
     30 C         140.6688  140.7977  165.9579 C.ar    1  UNL1        0.1777
     31 N         139.6788  139.9046  169.6032 N.pl3   1  UNL1       -0.3171
     32 H         139.0417  139.2416  169.9548 H       1  UNL1        0.1482
     33 C         140.4964  140.7340  170.5486 C.3     1  UNL1        0.0706
     34 C         141.7249  140.9129  171.3904 C.3     1  UNL1        0.0212
     35 C         140.6838  141.9917  171.3442 C.3     1  UNL1        0.0212
@<TRIPOS>BOND
     1    11    12    1
     2    12    13    2
     3    12    14   am
     4    14    15    1
     5    15    16    1
     6    16    17    1
     7    17     1    1
     8     1     2   ar
     9     2     3   ar
    10     3     4   ar
    11     4     5   ar
    12     5     6   ar
    13     6     7   ar
    14     7    21    1
    15    21    22   ar
    16    22    23    1
    17    22    24   ar
    18    24    25   ar
    19    25    26   ar
    20    26    27   ar
    21    27    31    1
    22    31    33    1
    23    33    34    1
    24    34    35    1
    25    27    28   ar
    26    28    29   ar
    27    29    30   ar
    28     7     8   ar
    29     8     9   ar
    30     9    10   ar
    31    17    18    1
    32    18    19    1
    33    18    20    1
    34    20    14    1
    35    10     1   ar
    36    10     5   ar
    37    30    21   ar
    38    30    26   ar
    39    35    33    1
    40    31    32    1
