@<TRIPOS>MOLECULE
*****
 30 34 0 0 0
SMALL
GASTEIGER

@<TRIPOS>ATOM
      1 C         142.8070  138.4087  159.7504 C.ar    1  UNL1        0.0344
      2 C         142.6729  137.6418  161.0326 C.ar    1  UNL1        0.0061
      3 C         143.2415  138.2001  162.3033 C.ar    1  UNL1        0.0370
      4 C         143.9442  139.5253  162.2920 C.ar    1  UNL1        0.1384
      5 C         144.0783  140.2922  161.0099 C.ar    1  UNL1        0.0370
      6 C         143.5097  139.7338  159.7391 C.ar    1  UNL1        0.0061
      7 C         140.0118  139.1143  158.9206 C.3     1  UNL1        0.1350
      8 N         140.8408  138.2032  158.0647 N.ar    1  UNL1       -0.2786
      9 C         142.2384  137.8503  158.4796 C.ar    1  UNL1        0.1460
     10 N         143.0674  136.9392  157.6237 N.ar    1  UNL1       -0.2280
     11 C         142.4988  136.3809  156.3528 C.ar    1  UNL1        0.0875
     12 C         143.3278  135.4698  155.4969 C.ar    1  UNL1        0.0193
     13 C         142.7592  134.9115  154.2261 C.ar    1  UNL1        0.0015
     14 C         141.3616  135.2644  153.8112 C.ar    1  UNL1        0.0003
     15 C         140.5326  136.1755  154.6671 C.ar    1  UNL1        0.0063
     16 C         141.1012  136.7338  155.9379 C.ar    1  UNL1        0.0739
     17 C         140.2722  137.6449  156.7939 C.ar    1  UNL1        0.2634
     18 O         138.8745  137.9978  156.3790 O.2     1  UNL1       -0.2669
     19 O         144.5128  140.0836  163.5629 O.3     1  UNL1       -0.4791
     20 C         143.6148  140.3428  164.7360 C.3     1  UNL1        0.1687
     21 C         143.3907  139.2703  165.7604 C.3     1  UNL1        0.0609
     22 C         142.4927  139.5295  166.9336 C.3     1  UNL1        0.0758
     23 N         141.8187  140.8613  167.0824 N.3     1  UNL1       -0.2737
     24 C         142.0428  141.9339  166.0580 C.3     1  UNL1        0.0758
     25 C         142.9409  141.6746  164.8848 C.3     1  UNL1        0.0609
     26 C         140.9207  141.1206  168.2555 C.3     1  UNL1        0.0575
     27 C         140.8807  142.3765  169.0746 C.3     1  UNL1        0.0160
     28 C         139.8403  142.2015  170.1409 C.3     1  UNL1        0.0014
     29 C         139.2373  140.8374  169.9808 C.3     1  UNL1        0.0014
     30 C         139.9050  140.1693  168.8155 C.3     1  UNL1        0.0160
@<TRIPOS>BOND
     1     7     8    1
     2     8     9   ar
     3     9     1    1
     4     1     2   ar
     5     2     3   ar
     6     3     4   ar
     7     4    19    1
     8    19    20    1
     9    20    21    1
    10    21    22    1
    11    22    23    1
    12    23    26    1
    13    26    27    1
    14    27    28    1
    15    28    29    1
    16    29    30    1
    17    23    24    1
    18    24    25    1
    19     4     5   ar
    20     5     6   ar
    21     9    10   ar
    22    10    11   ar
    23    11    12   ar
    24    12    13   ar
    25    13    14   ar
    26    14    15   ar
    27    15    16   ar
    28    16    17   ar
    29    17    18    2
    30    17     8   ar
    31     6     1   ar
    32    16    11   ar
    33    25    20    1
    34    30    26    1
@<TRIPOS>MOLECULE
*****
 30 34 0 0 0
SMALL
GASTEIGER

@<TRIPOS>ATOM
      1 C         143.1632  136.6593  156.5599 C.ar    1  UNL1        0.0344
      2 C         142.4269  137.4362  157.6106 C.ar    1  UNL1        0.0061
      3 C         142.5160  138.9333  157.6367 C.ar    1  UNL1        0.0370
      4 C         143.3415  139.6535  156.6120 C.ar    1  UNL1        0.1384
      5 C         144.0778  138.8765  155.5613 C.ar    1  UNL1        0.0370
      6 C         143.9887  137.3794  155.5352 C.ar    1  UNL1        0.0061
      7 C         140.9780  135.3136  155.0061 C.3     1  UNL1        0.1350
      8 N         141.9815  134.4893  155.7569 N.ar    1  UNL1       -0.2786
      9 C         143.0741  135.1621  156.5337 C.ar    1  UNL1        0.1460
     10 N         144.0776  134.3378  157.2844 N.ar    1  UNL1       -0.2280
     11 C         143.9885  132.8407  157.2583 C.ar    1  UNL1        0.0875
     12 C         144.9919  132.0164  158.0090 C.ar    1  UNL1        0.0193
     13 C         144.9028  130.5193  157.9829 C.ar    1  UNL1        0.0015
     14 C         143.8102  129.8465  157.2060 C.ar    1  UNL1        0.0003
     15 C         142.8067  130.6708  156.4553 C.ar    1  UNL1        0.0063
     16 C         142.8959  132.1678  156.4815 C.ar    1  UNL1        0.0739
     17 C         141.8924  132.9922  155.7307 C.ar    1  UNL1        0.2634
     18 O         140.7998  132.3194  154.9539 O.2     1  UNL1       -0.2669
     19 O         143.4306  141.1506  156.6381 O.3     1  UNL1       -0.4791
     20 C         143.3253  141.8856  157.9415 C.3     1  UNL1        0.1687
     21 C         142.0946  142.6835  158.2553 C.3     1  UNL1        0.0609
     22 C         141.9893  143.4185  159.5586 C.3     1  UNL1        0.0758
     23 N         143.1149  143.3555  160.5482 N.3     1  UNL1       -0.2737
     24 C         144.3456  142.5576  160.2344 C.3     1  UNL1        0.0758
     25 C         144.4509  141.8226  158.9310 C.3     1  UNL1        0.0609
     26 C         143.0096  144.0905  161.8515 C.3     1  UNL1        0.0575
     27 C         141.7592  144.6821  162.4316 C.3     1  UNL1        0.0160
     28 C         142.1130  145.3201  163.7422 C.3     1  UNL1        0.0014
     29 C         143.5822  145.1229  163.9721 C.3     1  UNL1        0.0014
     30 C         144.1362  144.3629  162.8036 C.3     1  UNL1        0.0160
@<TRIPOS>BOND
     1     7     8    1
     2     8     9   ar
     3     9     1    1
     4     1     2   ar
     5     2     3   ar
     6     3     4   ar
     7     4    19    1
     8    19    20    1
     9    20    21    1
    10    21    22    1
    11    22    23    1
    12    23    26    1
    13    26    27    1
    14    27    28    1
    15    28    29    1
    16    29    30    1
    17    23    24    1
    18    24    25    1
    19     4     5   ar
    20     5     6   ar
    21     9    10   ar
    22    10    11   ar
    23    11    12   ar
    24    12    13   ar
    25    13    14   ar
    26    14    15   ar
    27    15    16   ar
    28    16    17   ar
    29    17    18    2
    30    17     8   ar
    31     6     1   ar
    32    16    11   ar
    33    25    20    1
    34    30    26    1
@<TRIPOS>MOLECULE
*****
 30 34 0 0 0
SMALL
GASTEIGER

@<TRIPOS>ATOM
      1 C         138.3149  140.0898  160.0162 C.ar    1  UNL1        0.0344
      2 C         137.6458  140.4748  161.3023 C.ar    1  UNL1        0.0061
      3 C         137.8990  139.6776  162.5474 C.ar    1  UNL1        0.0370
      4 C         138.8213  138.4954  162.5064 C.ar    1  UNL1        0.1384
      5 C         139.4904  138.1104  161.2203 C.ar    1  UNL1        0.0370
      6 C         139.2373  138.9076  159.9753 C.ar    1  UNL1        0.0061
      7 C         139.8899  142.5880  159.4886 C.3     1  UNL1        0.1350
      8 N         138.8493  142.1362  158.5072 N.ar    1  UNL1       -0.2786
      9 C         138.0618  140.8871  158.7711 C.ar    1  UNL1        0.1460
     10 N         137.0212  140.4352  157.7898 N.ar    1  UNL1       -0.2280
     11 C         136.7680  141.2325  156.5446 C.ar    1  UNL1        0.0875
     12 C         135.7274  140.7806  155.5634 C.ar    1  UNL1        0.0193
     13 C         135.4743  141.5778  154.3183 C.ar    1  UNL1        0.0015
     14 C         136.2618  142.8270  154.0544 C.ar    1  UNL1        0.0003
     15 C         137.3024  143.2788  155.0357 C.ar    1  UNL1        0.0063
     16 C         137.5555  142.4816  156.2808 C.ar    1  UNL1        0.0739
     17 C         138.5962  142.9334  157.2621 C.ar    1  UNL1        0.2634
     18 O         139.3837  144.1825  156.9983 O.2     1  UNL1       -0.2669
     19 O         139.0745  137.6981  163.7516 O.3     1  UNL1       -0.4791
     20 C         139.3710  138.3995  165.0439 C.3     1  UNL1        0.1687
     21 C         140.7535  138.9122  165.3189 C.3     1  UNL1        0.0609
     22 C         141.0500  139.6136  166.6112 C.3     1  UNL1        0.0758
     23 N         139.9639  139.8023  167.6286 N.3     1  UNL1       -0.2737
     24 C         138.5814  139.2895  167.3535 C.3     1  UNL1        0.0758
     25 C         138.2849  138.5881  166.0611 C.3     1  UNL1        0.0609
     26 C         140.2605  140.5036  168.9209 C.3     1  UNL1        0.0575
     27 C         140.0347  141.9588  169.2062 C.3     1  UNL1        0.0160
     28 C         140.4695  142.2276  170.6164 C.3     1  UNL1        0.0014
     29 C         140.9640  140.9384  171.2027 C.3     1  UNL1        0.0014
     30 C         140.8348  139.8730  170.1548 C.3     1  UNL1        0.0160
@<TRIPOS>BOND
     1     7     8    1
     2     8     9   ar
     3     9     1    1
     4     1     2   ar
     5     2     3   ar
     6     3     4   ar
     7     4    19    1
     8    19    20    1
     9    20    21    1
    10    21    22    1
    11    22    23    1
    12    23    26    1
    13    26    27    1
    14    27    28    1
    15    28    29    1
    16    29    30    1
    17    23    24    1
    18    24    25    1
    19     4     5   ar
    20     5     6   ar
    21     9    10   ar
    22    10    11   ar
    23    11    12   ar
    24    12    13   ar
    25    13    14   ar
    26    14    15   ar
    27    15    16   ar
    28    16    17   ar
    29    17    18    2
    30    17     8   ar
    31     6     1   ar
    32    16    11   ar
    33    25    20    1
    34    30    26    1
@<TRIPOS>MOLECULE
*****
 30 34 0 0 0
SMALL
GASTEIGER

@<TRIPOS>ATOM
      1 C         139.7726  139.4470  165.0409 C.ar    1  UNL1        0.0344
      2 C         140.2035  138.0696  164.6322 C.ar    1  UNL1        0.0061
      3 C         139.9977  137.6076  163.2200 C.ar    1  UNL1        0.0370
      4 C         139.3611  138.5230  162.2167 C.ar    1  UNL1        0.1384
      5 C         138.9301  139.9003  162.6254 C.ar    1  UNL1        0.0370
      6 C         139.1359  140.3623  164.0376 C.ar    1  UNL1        0.0061
      7 C         137.7545  138.7619  167.1524 C.3     1  UNL1        0.1350
      8 N         138.9693  139.5665  167.5088 N.ar    1  UNL1       -0.2786
      9 C         139.9783  139.9090  166.4531 C.ar    1  UNL1        0.1460
     10 N         141.1931  140.7136  166.8096 N.ar    1  UNL1       -0.2280
     11 C         141.3988  141.1757  168.2218 C.ar    1  UNL1        0.0875
     12 C         142.6135  141.9802  168.5782 C.ar    1  UNL1        0.0193
     13 C         142.8192  142.4422  169.9903 C.ar    1  UNL1        0.0015
     14 C         141.8102  142.0997  171.0460 C.ar    1  UNL1        0.0003
     15 C         140.5955  141.2951  170.6896 C.ar    1  UNL1        0.0063
     16 C         140.3898  140.8331  169.2775 C.ar    1  UNL1        0.0739
     17 C         139.1750  140.0285  168.9210 C.ar    1  UNL1        0.2634
     18 O         138.1660  139.6860  169.9767 O.2     1  UNL1       -0.2669
     19 O         139.1553  138.0609  160.8045 O.3     1  UNL1       -0.4791
     20 C         140.2115  138.3162  159.7704 C.3     1  UNL1        0.1687
     21 C         139.8446  138.3513  158.3164 C.3     1  UNL1        0.0609
     22 C         140.9007  138.6066  157.2823 C.3     1  UNL1        0.0758
     23 N         142.3239  138.8268  157.7023 N.3     1  UNL1       -0.2737
     24 C         142.6908  138.7916  159.1563 C.3     1  UNL1        0.0758
     25 C         141.6345  138.5363  160.1904 C.3     1  UNL1        0.0609
     26 C         143.3800  139.0821  156.6682 C.3     1  UNL1        0.0575
     27 C         143.7861  138.1421  155.5721 C.3     1  UNL1        0.0160
     28 C         144.8726  138.8012  154.7751 C.3     1  UNL1        0.0014
     29 C         145.1380  140.1486  155.3788 C.3     1  UNL1        0.0014
     30 C         144.2156  140.3221  156.5488 C.3     1  UNL1        0.0160
@<TRIPOS>BOND
     1     7     8    1
     2     8     9   ar
     3     9     1    1
     4     1     2   ar
     5     2     3   ar
     6     3     4   ar
     7     4    19    1
     8    19    20    1
     9    20    21    1
    10    21    22    1
    11    22    23    1
    12    23    26    1
    13    26    27    1
    14    27    28    1
    15    28    29    1
    16    29    30    1
    17    23    24    1
    18    24    25    1
    19     4     5   ar
    20     5     6   ar
    21     9    10   ar
    22    10    11   ar
    23    11    12   ar
    24    12    13   ar
    25    13    14   ar
    26    14    15   ar
    27    15    16   ar
    28    16    17   ar
    29    17    18    2
    30    17     8   ar
    31     6     1   ar
    32    16    11   ar
    33    25    20    1
    34    30    26    1
@<TRIPOS>MOLECULE
*****
 30 34 0 0 0
SMALL
GASTEIGER

@<TRIPOS>ATOM
      1 C         140.4313  139.2726  159.9133 C.ar    1  UNL1        0.0344
      2 C         141.9127  139.0401  159.8786 C.ar    1  UNL1        0.0061
      3 C         142.5328  138.3265  158.7140 C.ar    1  UNL1        0.0370
      4 C         141.6713  137.8454  157.5842 C.ar    1  UNL1        0.1384
      5 C         140.1899  138.0779  157.6189 C.ar    1  UNL1        0.0370
      6 C         139.5699  138.7915  158.7835 C.ar    1  UNL1        0.0061
      7 C         139.6842  137.7439  162.3842 C.3     1  UNL1        0.1350
      8 N         139.4377  139.2219  162.3134 N.ar    1  UNL1       -0.2786
      9 C         139.8112  139.9862  161.0780 C.ar    1  UNL1        0.1460
     10 N         139.5647  141.4641  161.0072 N.ar    1  UNL1       -0.2280
     11 C         138.9446  142.1777  162.1718 C.ar    1  UNL1        0.0875
     12 C         138.6981  143.6556  162.1010 C.ar    1  UNL1        0.0193
     13 C         138.0780  144.3691  163.2656 C.ar    1  UNL1        0.0015
     14 C         137.7044  143.6047  164.5010 C.ar    1  UNL1        0.0003
     15 C         137.9510  142.1269  164.5718 C.ar    1  UNL1        0.0063
     16 C         138.5710  141.4133  163.4072 C.ar    1  UNL1        0.0739
     17 C         138.8176  139.9354  163.4780 C.ar    1  UNL1        0.2634
     18 O         138.4441  139.1710  164.7134 O.2     1  UNL1       -0.2669
     19 O         142.2914  137.1318  156.4195 O.3     1  UNL1       -0.4791
     20 C         142.3642  135.6336  156.4102 C.3     1  UNL1        0.1687
     21 C         143.2894  134.9218  157.3522 C.3     1  UNL1        0.0609
     22 C         143.3621  133.4236  157.3429 C.3     1  UNL1        0.0758
     23 N         142.5096  132.6372  156.3916 N.3     1  UNL1       -0.2737
     24 C         141.5843  133.3491  155.4497 C.3     1  UNL1        0.0758
     25 C         141.5117  134.8473  155.4590 C.3     1  UNL1        0.0609
     26 C         142.5823  131.1390  156.3823 C.3     1  UNL1        0.0575
     27 C         143.3581  130.2880  157.3435 C.3     1  UNL1        0.0160
     28 C         143.1472  128.8518  156.9654 C.3     1  UNL1        0.0014
     29 C         142.2411  128.8152  155.7706 C.3     1  UNL1        0.0014
     30 C         141.8919  130.2288  155.4102 C.3     1  UNL1        0.0160
@<TRIPOS>BOND
     1     7     8    1
     2     8     9   ar
     3     9     1    1
     4     1     2   ar
     5     2     3   ar
     6     3     4   ar
     7     4    19    1
     8    19    20    1
     9    20    21    1
    10    21    22    1
    11    22    23    1
    12    23    26    1
    13    26    27    1
    14    27    28    1
    15    28    29    1
    16    29    30    1
    17    23    24    1
    18    24    25    1
    19     4     5   ar
    20     5     6   ar
    21     9    10   ar
    22    10    11   ar
    23    11    12   ar
    24    12    13   ar
    25    13    14   ar
    26    14    15   ar
    27    15    16   ar
    28    16    17   ar
    29    17    18    2
    30    17     8   ar
    31     6     1   ar
    32    16    11   ar
    33    25    20    1
    34    30    26    1
@<TRIPOS>MOLECULE
*****
 30 34 0 0 0
SMALL
GASTEIGER

@<TRIPOS>ATOM
      1 C         139.5502  139.0121  160.0277 C.ar    1  UNL1        0.0344
      2 C         139.2614  140.4666  160.2529 C.ar    1  UNL1        0.0061
      3 C         138.6941  140.9243  161.5639 C.ar    1  UNL1        0.0370
      4 C         138.4157  139.9275  162.6496 C.ar    1  UNL1        0.1384
      5 C         138.7046  138.4729  162.4244 C.ar    1  UNL1        0.0370
      6 C         139.2718  138.0152  161.1134 C.ar    1  UNL1        0.0061
      7 C         142.5225  138.8945  159.6386 C.3     1  UNL1        0.1350
      8 N         141.6036  138.4955  158.5221 N.ar    1  UNL1       -0.2786
      9 C         140.1175  138.5543  158.7167 C.ar    1  UNL1        0.1460
     10 N         139.1986  138.1553  157.6003 N.ar    1  UNL1       -0.2280
     11 C         139.7658  137.6975  156.2892 C.ar    1  UNL1        0.0875
     12 C         138.8469  137.2985  155.1728 C.ar    1  UNL1        0.0193
     13 C         139.4142  136.8407  153.8619 C.ar    1  UNL1        0.0015
     14 C         140.9004  136.7820  153.6674 C.ar    1  UNL1        0.0003
     15 C         141.8193  137.1809  154.7838 C.ar    1  UNL1        0.0063
     16 C         141.2520  137.6387  156.0947 C.ar    1  UNL1        0.0739
     17 C         142.1709  138.0377  157.2112 C.ar    1  UNL1        0.2634
     18 O         143.6571  137.9790  157.0166 O.2     1  UNL1       -0.2669
     19 O         137.8485  140.3853  163.9607 O.3     1  UNL1       -0.4791
     20 C         138.7665  140.8227  165.0633 C.3     1  UNL1        0.1687
     21 C         139.4199  142.1717  165.0044 C.3     1  UNL1        0.0609
     22 C         140.3380  142.6091  166.1070 C.3     1  UNL1        0.0758
     23 N         140.6027  141.6975  167.2686 N.3     1  UNL1       -0.2737
     24 C         139.9493  140.3486  167.3274 C.3     1  UNL1        0.0758
     25 C         139.0312  139.9112  166.2247 C.3     1  UNL1        0.0609
     26 C         141.5207  142.1350  168.3712 C.3     1  UNL1        0.0575
     27 C         142.9742  141.7868  168.4986 C.3     1  UNL1        0.0160
     28 C         143.4983  142.4340  169.7461 C.3     1  UNL1        0.0014
     29 C         142.3687  143.1822  170.3898 C.3     1  UNL1        0.0014
     30 C         141.1466  142.9974  169.5401 C.3     1  UNL1        0.0160
@<TRIPOS>BOND
     1     7     8    1
     2     8     9   ar
     3     9     1    1
     4     1     2   ar
     5     2     3   ar
     6     3     4   ar
     7     4    19    1
     8    19    20    1
     9    20    21    1
    10    21    22    1
    11    22    23    1
    12    23    26    1
    13    26    27    1
    14    27    28    1
    15    28    29    1
    16    29    30    1
    17    23    24    1
    18    24    25    1
    19     4     5   ar
    20     5     6   ar
    21     9    10   ar
    22    10    11   ar
    23    11    12   ar
    24    12    13   ar
    25    13    14   ar
    26    14    15   ar
    27    15    16   ar
    28    16    17   ar
    29    17    18    2
    30    17     8   ar
    31     6     1   ar
    32    16    11   ar
    33    25    20    1
    34    30    26    1
@<TRIPOS>MOLECULE
*****
 30 34 0 0 0
SMALL
GASTEIGER

@<TRIPOS>ATOM
      1 C         140.7319  139.3784  164.7851 C.ar    1  UNL1        0.0344
      2 C         141.5200  138.1456  164.4548 C.ar    1  UNL1        0.0061
      3 C         141.6386  137.6905  163.0305 C.ar    1  UNL1        0.0370
      4 C         140.9689  138.4682  161.9364 C.ar    1  UNL1        0.1384
      5 C         140.1808  139.7009  162.2667 C.ar    1  UNL1        0.0370
      6 C         140.0623  140.1560  163.6910 C.ar    1  UNL1        0.0061
      7 C         138.3377  138.5969  166.4151 C.3     1  UNL1        0.1350
      8 N         139.4163  139.4429  167.0245 N.ar    1  UNL1       -0.2786
      9 C         140.6134  139.8336  166.2095 C.ar    1  UNL1        0.1460
     10 N         141.6919  140.6794  166.8188 N.ar    1  UNL1       -0.2280
     11 C         141.5733  141.1346  168.2432 C.ar    1  UNL1        0.0875
     12 C         142.6518  141.9805  168.8525 C.ar    1  UNL1        0.0193
     13 C         142.5332  142.4356  170.2768 C.ar    1  UNL1        0.0015
     14 C         141.3361  142.0449  171.0918 C.ar    1  UNL1        0.0003
     15 C         140.2576  141.1990  170.4825 C.ar    1  UNL1        0.0063
     16 C         140.3762  140.7439  169.0582 C.ar    1  UNL1        0.0739
     17 C         139.2977  139.8980  168.4488 C.ar    1  UNL1        0.2634
     18 O         138.1006  139.5073  169.2639 O.2     1  UNL1       -0.2669
     19 O         141.0875  138.0130  160.5120 O.3     1  UNL1       -0.4791
     20 C         142.0713  138.6741  159.5928 C.3     1  UNL1        0.1687
     21 C         143.1160  139.5953  160.1496 C.3     1  UNL1        0.0609
     22 C         144.0998  140.2564  159.2304 C.3     1  UNL1        0.0758
     23 N         144.0391  139.9962  157.7543 N.3     1  UNL1       -0.2737
     24 C         142.9944  139.0750  157.1975 C.3     1  UNL1        0.0758
     25 C         142.0105  138.4139  158.1168 C.3     1  UNL1        0.0609
     26 C         145.0229  140.6573  156.8351 C.3     1  UNL1        0.0575
     27 C         145.5517  140.0872  155.5524 C.3     1  UNL1        0.0160
     28 C         146.5063  141.0821  154.9618 C.3     1  UNL1        0.0014
     29 C         146.5675  142.2671  155.8794 C.3     1  UNL1        0.0014
     30 C         145.6507  142.0046  157.0372 C.3     1  UNL1        0.0160
@<TRIPOS>BOND
     1     7     8    1
     2     8     9   ar
     3     9     1    1
     4     1     2   ar
     5     2     3   ar
     6     3     4   ar
     7     4    19    1
     8    19    20    1
     9    20    21    1
    10    21    22    1
    11    22    23    1
    12    23    26    1
    13    26    27    1
    14    27    28    1
    15    28    29    1
    16    29    30    1
    17    23    24    1
    18    24    25    1
    19     4     5   ar
    20     5     6   ar
    21     9    10   ar
    22    10    11   ar
    23    11    12   ar
    24    12    13   ar
    25    13    14   ar
    26    14    15   ar
    27    15    16   ar
    28    16    17   ar
    29    17    18    2
    30    17     8   ar
    31     6     1   ar
    32    16    11   ar
    33    25    20    1
    34    30    26    1
@<TRIPOS>MOLECULE
*****
 30 34 0 0 0
SMALL
GASTEIGER

@<TRIPOS>ATOM
      1 C         142.9579  139.7464  164.4724 C.ar    1  UNL1        0.0344
      2 C         144.1206  140.4415  163.8282 C.ar    1  UNL1        0.0061
      3 C         144.4703  140.1503  162.3990 C.ar    1  UNL1        0.0370
      4 C         143.6575  139.1640  161.6139 C.ar    1  UNL1        0.1384
      5 C         142.4948  138.4688  162.2580 C.ar    1  UNL1        0.0370
      6 C         142.1451  138.7600  163.6873 C.ar    1  UNL1        0.0061
      7 C         143.8452  137.8770  166.6445 C.3     1  UNL1        0.1350
      8 N         143.0517  139.1029  166.9878 N.ar    1  UNL1       -0.2786
      9 C         142.6081  140.0375  165.9017 C.ar    1  UNL1        0.1460
     10 N         141.8146  141.2633  166.2449 N.ar    1  UNL1       -0.2280
     11 C         141.4648  141.5545  167.6742 C.ar    1  UNL1        0.0875
     12 C         140.6714  142.7803  168.0174 C.ar    1  UNL1        0.0193
     13 C         140.3216  143.0714  169.4467 C.ar    1  UNL1        0.0015
     14 C         140.7652  142.1367  170.5328 C.ar    1  UNL1        0.0003
     15 C         141.5587  140.9109  170.1896 C.ar    1  UNL1        0.0063
     16 C         141.9085  140.6198  168.7603 C.ar    1  UNL1        0.0739
     17 C         142.7019  139.3940  168.4171 C.ar    1  UNL1        0.2634
     18 O         143.1456  138.4593  169.5031 O.2     1  UNL1       -0.2669
     19 O         144.0073  138.8728  160.1845 O.3     1  UNL1       -0.4791
     20 C         142.9233  138.7718  159.1527 C.3     1  UNL1        0.1687
     21 C         142.0304  139.9470  158.8854 C.3     1  UNL1        0.0609
     22 C         140.9464  139.8460  157.8536 C.3     1  UNL1        0.0758
     23 N         140.7553  138.5696  157.0890 N.3     1  UNL1       -0.2737
     24 C         141.6483  137.3944  157.3563 C.3     1  UNL1        0.0758
     25 C         142.7323  137.4955  158.3882 C.3     1  UNL1        0.0609
     26 C         139.6713  138.4686  156.0572 C.3     1  UNL1        0.0575
     27 C         138.9216  139.6175  155.4506 C.3     1  UNL1        0.0160
     28 C         137.9337  139.0599  154.4693 C.3     1  UNL1        0.0014
     29 C         138.0728  137.5663  154.4693 C.3     1  UNL1        0.0014
     30 C         139.1467  137.2009  155.4507 C.3     1  UNL1        0.0160
@<TRIPOS>BOND
     1     7     8    1
     2     8     9   ar
     3     9     1    1
     4     1     2   ar
     5     2     3   ar
     6     3     4   ar
     7     4    19    1
     8    19    20    1
     9    20    21    1
    10    21    22    1
    11    22    23    1
    12    23    26    1
    13    26    27    1
    14    27    28    1
    15    28    29    1
    16    29    30    1
    17    23    24    1
    18    24    25    1
    19     4     5   ar
    20     5     6   ar
    21     9    10   ar
    22    10    11   ar
    23    11    12   ar
    24    12    13   ar
    25    13    14   ar
    26    14    15   ar
    27    15    16   ar
    28    16    17   ar
    29    17    18    2
    30    17     8   ar
    31     6     1   ar
    32    16    11   ar
    33    25    20    1
    34    30    26    1
@<TRIPOS>MOLECULE
*****
 30 34 0 0 0
SMALL
GASTEIGER

@<TRIPOS>ATOM
      1 C         140.3163  140.9949  162.6799 C.ar    1  UNL1        0.0344
      2 C         141.5812  140.4635  162.0738 C.ar    1  UNL1        0.0061
      3 C         141.8918  140.7315  160.6310 C.ar    1  UNL1        0.0370
      4 C         140.9373  141.5309  159.7943 C.ar    1  UNL1        0.1384
      5 C         139.6724  142.0623  160.4004 C.ar    1  UNL1        0.0370
      6 C         139.3618  141.7943  161.8432 C.ar    1  UNL1        0.0061
      7 C         138.7103  138.5793  163.4450 C.3     1  UNL1        0.1350
      8 N         139.2027  139.5191  164.5053 N.ar    1  UNL1       -0.2786
      9 C         140.0057  140.7270  164.1228 C.ar    1  UNL1        0.1460
     10 N         140.4982  141.6668  165.1830 N.ar    1  UNL1       -0.2280
     11 C         140.1876  141.3988  166.6259 C.ar    1  UNL1        0.0875
     12 C         140.6800  142.3386  167.6861 C.ar    1  UNL1        0.0193
     13 C         140.3695  142.0707  169.1289 C.ar    1  UNL1        0.0015
     14 C         139.5664  140.8628  169.5115 C.ar    1  UNL1        0.0003
     15 C         139.0740  139.9230  168.4512 C.ar    1  UNL1        0.0063
     16 C         139.3846  140.1910  167.0084 C.ar    1  UNL1        0.0739
     17 C         138.8921  139.2511  165.9481 C.ar    1  UNL1        0.2634
     18 O         138.0891  138.0433  166.3306 O.2     1  UNL1       -0.2669
     19 O         141.2479  141.7989  158.3514 O.3     1  UNL1       -0.4791
     20 C         140.8701  143.1128  157.7344 C.3     1  UNL1        0.1687
     21 C         141.6477  144.3506  158.0709 C.3     1  UNL1        0.0609
     22 C         141.2699  145.6646  157.4539 C.3     1  UNL1        0.0758
     23 N         140.1145  145.7408  156.5003 N.3     1  UNL1       -0.2737
     24 C         139.3369  144.5030  156.1638 C.3     1  UNL1        0.0758
     25 C         139.7147  143.1890  156.7809 C.3     1  UNL1        0.0609
     26 C         139.7367  147.0548  155.8833 C.3     1  UNL1        0.0575
     27 C         138.8489  148.0952  156.4993 C.3     1  UNL1        0.0160
     28 C         138.7439  149.2425  155.5387 C.3     1  UNL1        0.0014
     29 C         139.5667  148.9111  154.3290 C.3     1  UNL1        0.0014
     30 C         140.1803  147.5590  154.5421 C.3     1  UNL1        0.0160
@<TRIPOS>BOND
     1     7     8    1
     2     8     9   ar
     3     9     1    1
     4     1     2   ar
     5     2     3   ar
     6     3     4   ar
     7     4    19    1
     8    19    20    1
     9    20    21    1
    10    21    22    1
    11    22    23    1
    12    23    26    1
    13    26    27    1
    14    27    28    1
    15    28    29    1
    16    29    30    1
    17    23    24    1
    18    24    25    1
    19     4     5   ar
    20     5     6   ar
    21     9    10   ar
    22    10    11   ar
    23    11    12   ar
    24    12    13   ar
    25    13    14   ar
    26    14    15   ar
    27    15    16   ar
    28    16    17   ar
    29    17    18    2
    30    17     8   ar
    31     6     1   ar
    32    16    11   ar
    33    25    20    1
    34    30    26    1
