@<TRIPOS>MOLECULE
*****
 30 33 0 0 0
SMALL
GASTEIGER

@<TRIPOS>ATOM
      1 C         138.4633  145.2709  162.4968 C.3     1  UNL1        0.0281
      2 C         139.4641  144.2032  162.1678 C.3     1  UNL1        0.1170
      3 C         140.1504  144.2036  160.8340 C.ar    1  UNL1        0.0907
      4 N         140.0451  145.1205  159.6515 N.ar    1  UNL1       -0.2267
      5 C         140.9809  144.6193  158.5917 C.ar    1  UNL1        0.1834
      6 N         141.6645  143.3927  159.1192 N.ar    1  UNL1       -0.2768
      7 C         141.1512  143.1358  160.5050 C.ar    1  UNL1        0.0610
      8 C         141.4658  142.0676  161.5099 C.3     1  UNL1        0.0670
      9 C         140.7796  142.0671  162.8437 C.3     1  UNL1        0.1003
     10 N         139.7788  143.1348  163.1727 N.am    1  UNL1       -0.2720
     11 C         139.0925  143.1343  164.5066 C.2     1  UNL1        0.2501
     12 O         138.0917  144.2021  164.8355 O.2     1  UNL1       -0.2699
     13 C         142.6826  142.5679  158.3891 C.ar    1  UNL1        0.1488
     14 C         142.2653  141.3088  157.6888 C.ar    1  UNL1        0.0398
     15 C         143.2834  140.4839  156.9587 C.ar    1  UNL1        0.0343
     16 C         144.7188  140.9182  156.9288 C.ar    1  UNL1        0.1593
     17 F         145.7369  140.0934  156.1987 F       1  UNL1       -0.2025
     18 C         145.1361  142.1774  157.6291 C.ar    1  UNL1        0.1300
     19 N         144.1181  143.0022  158.3592 N.ar    1  UNL1       -0.2240
     20 C         139.4071  142.0661  165.5115 C.ar    1  UNL1        0.0641
     21 C         140.3539  142.3525  166.6391 C.ar    1  UNL1        0.0054
     22 C         140.6685  141.2842  167.6440 C.ar    1  UNL1        0.0001
     23 C         140.0364  139.9295  167.5213 C.ar    1  UNL1        0.0047
     24 C         139.0895  139.6431  166.3936 C.ar    1  UNL1        0.0821
     25 C         138.7749  140.7113  165.3887 C.ar    1  UNL1        0.0659
     26 CL        137.8281  140.4248  164.2611 Cl      1  UNL1       -0.0822
     27 C         138.4573  138.2883  166.2709 C.3     1  UNL1        0.4194
     28 F         137.8252  136.9336  166.1481 F       1  UNL1       -0.1658
     29 F         139.5922  137.8377  165.3997 F       1  UNL1       -0.1658
     30 F         137.3225  138.7390  167.1420 F       1  UNL1       -0.1658
@<TRIPOS>BOND
     1     2     1    1
     2     2     3    1
     3     3     4   ar
     4     4     5   ar
     5     5     6   ar
     6     6    13    1
     7    13    14   ar
     8    14    15   ar
     9    15    16   ar
    10    16    17    1
    11    16    18   ar
    12    18    19   ar
    13     6     7   ar
    14     7     8    1
    15     8     9    1
    16     9    10    1
    17    10    11   am
    18    11    12    2
    19    11    20    1
    20    20    21   ar
    21    21    22   ar
    22    22    23   ar
    23    23    24   ar
    24    24    27    1
    25    27    28    1
    26    27    29    1
    27    27    30    1
    28    24    25   ar
    29    25    26    1
    30    10     2    1
    31    25    20   ar
    32     7     3   ar
    33    19    13   ar
@<TRIPOS>MOLECULE
*****
 30 33 0 0 0
SMALL
GASTEIGER

@<TRIPOS>ATOM
      1 C         145.0005  139.5068  163.9752 C.3     1  UNL1        0.0281
      2 C         143.8629  140.4067  163.5929 C.3     1  UNL1        0.1170
      3 C         143.9493  141.2367  162.3465 C.ar    1  UNL1        0.0907
      4 N         145.0204  141.3760  161.3056 N.ar    1  UNL1       -0.2267
      5 C         144.5448  142.3620  160.2802 C.ar    1  UNL1        0.1834
      6 N         143.1798  142.8321  160.6873 N.ar    1  UNL1       -0.2768
      7 C         142.8118  142.1367  161.9644 C.ar    1  UNL1        0.0610
      8 C         141.5878  142.2066  162.8286 C.3     1  UNL1        0.0670
      9 C         141.5014  141.3766  164.0751 C.3     1  UNL1        0.1003
     10 N         142.6389  140.4767  164.4572 N.am    1  UNL1       -0.2720
     11 C         142.5525  139.6467  165.7037 C.2     1  UNL1        0.2501
     12 O         143.6901  138.7467  166.0859 O.2     1  UNL1       -0.2699
     13 C         142.3317  143.8236  159.9472 C.ar    1  UNL1        0.1488
     14 C         141.1178  144.4105  160.6045 C.ar    1  UNL1        0.0398
     15 C         140.2697  145.4021  159.8644 C.ar    1  UNL1        0.0343
     16 C         140.6355  145.8066  158.4672 C.ar    1  UNL1        0.1593
     17 F         139.7874  146.7981  157.7271 F       1  UNL1       -0.2025
     18 C         141.8494  145.2196  157.8099 C.ar    1  UNL1        0.1300
     19 N         142.6975  144.2282  158.5498 N.ar    1  UNL1       -0.2240
     20 C         141.3285  139.7166  166.5680 C.ar    1  UNL1        0.0641
     21 C         140.0277  139.1578  166.0726 C.ar    1  UNL1        0.0054
     22 C         138.8037  139.2277  166.9370 C.ar    1  UNL1        0.0001
     23 C         138.8806  139.8565  168.2966 C.ar    1  UNL1        0.0047
     24 C         140.1815  140.4154  168.7920 C.ar    1  UNL1        0.0821
     25 C         141.4055  140.3454  167.9277 C.ar    1  UNL1        0.0659
     26 CL        142.7063  140.9043  168.4231 Cl      1  UNL1       -0.0822
     27 C         140.2584  141.0441  170.1517 C.3     1  UNL1        0.4194
     28 F         140.3353  141.6729  171.5114 F       1  UNL1       -0.1658
     29 F         139.8109  142.3531  169.5717 F       1  UNL1       -0.1658
     30 F         140.7059  139.7352  170.7317 F       1  UNL1       -0.1658
@<TRIPOS>BOND
     1     2     1    1
     2     2     3    1
     3     3     4   ar
     4     4     5   ar
     5     5     6   ar
     6     6    13    1
     7    13    14   ar
     8    14    15   ar
     9    15    16   ar
    10    16    17    1
    11    16    18   ar
    12    18    19   ar
    13     6     7   ar
    14     7     8    1
    15     8     9    1
    16     9    10    1
    17    10    11   am
    18    11    12    2
    19    11    20    1
    20    20    21   ar
    21    21    22   ar
    22    22    23   ar
    23    23    24   ar
    24    24    27    1
    25    27    28    1
    26    27    29    1
    27    27    30    1
    28    24    25   ar
    29    25    26    1
    30    10     2    1
    31    25    20   ar
    32     7     3   ar
    33    19    13   ar
@<TRIPOS>MOLECULE
*****
 30 33 0 0 0
SMALL
GASTEIGER

@<TRIPOS>ATOM
      1 C         137.9752  138.0105  162.1059 C.3     1  UNL1        0.0281
      2 C         138.9439  139.1507  161.9985 C.3     1  UNL1        0.1170
      3 C         138.9244  140.0403  160.7909 C.ar    1  UNL1        0.0907
      4 N         138.0717  140.0387  159.5569 N.ar    1  UNL1       -0.2267
      5 C         138.5134  141.1780  158.6869 C.ar    1  UNL1        0.1834
      6 N         139.6391  141.8837  159.3832 N.ar    1  UNL1       -0.2768
      7 C         139.8931  141.1805  160.6836 C.ar    1  UNL1        0.0610
      8 C         140.8813  141.4312  161.7839 C.3     1  UNL1        0.0670
      9 C         140.9008  140.5416  162.9915 C.3     1  UNL1        0.1003
     10 N         139.9321  139.4014  163.0988 N.am    1  UNL1       -0.2720
     11 C         139.9517  138.5118  164.3065 C.2     1  UNL1        0.2501
     12 O         138.9829  137.3716  164.4138 O.2     1  UNL1       -0.2699
     13 C         140.3805  143.0821  158.8694 C.ar    1  UNL1        0.1488
     14 C         141.8406  142.9770  158.5419 C.ar    1  UNL1        0.0398
     15 C         142.5821  144.1754  158.0280 C.ar    1  UNL1        0.0343
     16 C         141.8636  145.4788  157.8417 C.ar    1  UNL1        0.1593
     17 F         142.6051  146.6772  157.3278 F       1  UNL1       -0.2025
     18 C         140.4035  145.5839  158.1692 C.ar    1  UNL1        0.1300
     19 N         139.6620  144.3855  158.6831 N.ar    1  UNL1       -0.2240
     20 C         140.9399  138.7624  165.4067 C.ar    1  UNL1        0.0641
     21 C         142.3135  138.1646  165.3316 C.ar    1  UNL1        0.0054
     22 C         143.3017  138.4153  166.4320 C.ar    1  UNL1        0.0001
     23 C         142.9163  139.2637  167.6073 C.ar    1  UNL1        0.0047
     24 C         141.5426  139.8616  167.6823 C.ar    1  UNL1        0.0821
     25 C         140.5543  139.6110  166.5821 C.ar    1  UNL1        0.0659
     26 CL        139.1807  140.2089  166.6572 Cl      1  UNL1       -0.0822
     27 C         141.1571  140.7102  168.8577 C.3     1  UNL1        0.4194
     28 F         140.7717  141.5587  170.0331 F       1  UNL1       -0.1658
     29 F         140.7259  139.4819  169.6030 F       1  UNL1       -0.1658
     30 F         141.5884  141.9384  168.1124 F       1  UNL1       -0.1658
@<TRIPOS>BOND
     1     2     1    1
     2     2     3    1
     3     3     4   ar
     4     4     5   ar
     5     5     6   ar
     6     6    13    1
     7    13    14   ar
     8    14    15   ar
     9    15    16   ar
    10    16    17    1
    11    16    18   ar
    12    18    19   ar
    13     6     7   ar
    14     7     8    1
    15     8     9    1
    16     9    10    1
    17    10    11   am
    18    11    12    2
    19    11    20    1
    20    20    21   ar
    21    21    22   ar
    22    22    23   ar
    23    23    24   ar
    24    24    27    1
    25    27    28    1
    26    27    29    1
    27    27    30    1
    28    24    25   ar
    29    25    26    1
    30    10     2    1
    31    25    20   ar
    32     7     3   ar
    33    19    13   ar
@<TRIPOS>MOLECULE
*****
 30 33 0 0 0
SMALL
GASTEIGER

@<TRIPOS>ATOM
      1 C         143.7421  137.8653  160.9374 C.3     1  UNL1        0.0281
      2 C         142.3621  138.1109  160.4033 C.3     1  UNL1        0.1170
      3 C         142.0974  138.0026  158.9308 C.ar    1  UNL1        0.0907
      4 N         142.9911  137.6730  157.7720 N.ar    1  UNL1       -0.2267
      5 C         142.1633  137.7149  156.5218 C.ar    1  UNL1        0.1834
      6 N         140.7581  138.0704  156.9079 N.ar    1  UNL1       -0.2768
      7 C         140.7174  138.2482  158.3967 C.ar    1  UNL1        0.0610
      8 C         139.6020  138.6021  159.3352 C.3     1  UNL1        0.0670
      9 C         139.8667  138.7103  160.8077 C.3     1  UNL1        0.1003
     10 N         141.2466  138.4647  161.3417 N.am    1  UNL1       -0.2720
     11 C         141.5113  138.5730  162.8143 C.2     1  UNL1        0.2501
     12 O         142.8913  138.3273  163.3483 O.2     1  UNL1       -0.2699
     13 C         139.5974  138.2215  155.9698 C.ar    1  UNL1        0.1488
     14 C         139.3235  137.1663  154.9395 C.ar    1  UNL1        0.0398
     15 C         138.1628  137.3174  154.0014 C.ar    1  UNL1        0.0343
     16 C         137.2761  138.5237  154.0936 C.ar    1  UNL1        0.1593
     17 F         136.1155  138.6748  153.1555 F       1  UNL1       -0.2025
     18 C         137.5501  139.5789  155.1239 C.ar    1  UNL1        0.1300
     19 N         138.7107  139.4279  156.0620 N.ar    1  UNL1       -0.2240
     20 C         140.3959  138.9268  163.7527 C.ar    1  UNL1        0.0641
     21 C         139.7507  137.8601  164.5869 C.ar    1  UNL1        0.0054
     22 C         138.6353  138.2140  165.5253 C.ar    1  UNL1        0.0001
     23 C         138.1651  139.6345  165.6296 C.ar    1  UNL1        0.0047
     24 C         138.8103  140.7013  164.7954 C.ar    1  UNL1        0.0821
     25 C         139.9257  140.3474  163.8570 C.ar    1  UNL1        0.0659
     26 CL        140.5709  141.4142  163.0228 Cl      1  UNL1       -0.0822
     27 C         138.3401  142.1219  164.8997 C.3     1  UNL1        0.4194
     28 F         137.8699  143.5424  165.0040 F       1  UNL1       -0.1658
     29 F         139.3820  142.3900  165.9450 F       1  UNL1       -0.1658
     30 F         137.2982  141.8537  163.8545 F       1  UNL1       -0.1658
@<TRIPOS>BOND
     1     2     1    1
     2     2     3    1
     3     3     4   ar
     4     4     5   ar
     5     5     6   ar
     6     6    13    1
     7    13    14   ar
     8    14    15   ar
     9    15    16   ar
    10    16    17    1
    11    16    18   ar
    12    18    19   ar
    13     6     7   ar
    14     7     8    1
    15     8     9    1
    16     9    10    1
    17    10    11   am
    18    11    12    2
    19    11    20    1
    20    20    21   ar
    21    21    22   ar
    22    22    23   ar
    23    23    24   ar
    24    24    27    1
    25    27    28    1
    26    27    29    1
    27    27    30    1
    28    24    25   ar
    29    25    26    1
    30    10     2    1
    31    25    20   ar
    32     7     3   ar
    33    19    13   ar
@<TRIPOS>MOLECULE
*****
 30 33 0 0 0
SMALL
GASTEIGER

@<TRIPOS>ATOM
      1 C         138.9619  145.4268  162.6588 C.3     1  UNL1        0.0281
      2 C         139.7466  144.2290  162.2122 C.3     1  UNL1        0.1170
      3 C         140.5338  144.2811  160.9364 C.ar    1  UNL1        0.0907
      4 N         140.7250  145.3663  159.9186 N.ar    1  UNL1       -0.2267
      5 C         141.6278  144.8391  158.8430 C.ar    1  UNL1        0.1834
      6 N         141.9946  143.4281  159.1960 N.ar    1  UNL1       -0.2768
      7 C         141.3185  143.0833  160.4898 C.ar    1  UNL1        0.0610
      8 C         141.3160  141.8333  161.3190 C.3     1  UNL1        0.0670
      9 C         140.5287  141.7811  162.5947 C.3     1  UNL1        0.1003
     10 N         139.7441  142.9789  163.0413 N.am    1  UNL1       -0.2720
     11 C         138.9569  142.9268  164.3171 C.2     1  UNL1        0.2501
     12 O         138.1722  144.1246  164.7637 O.2     1  UNL1       -0.2699
     13 C         142.8818  142.5212  158.3957 C.ar    1  UNL1        0.1488
     14 C         144.3595  142.7734  158.3423 C.ar    1  UNL1        0.0398
     15 C         145.2467  141.8666  157.5420 C.ar    1  UNL1        0.0343
     16 C         144.6563  140.7076  156.7951 C.ar    1  UNL1        0.1593
     17 F         145.5434  139.8007  155.9948 F       1  UNL1       -0.2025
     18 C         143.1785  140.4554  156.8485 C.ar    1  UNL1        0.1300
     19 N         142.2913  141.3622  157.6488 N.ar    1  UNL1       -0.2240
     20 C         138.9543  141.6768  165.1463 C.ar    1  UNL1        0.0641
     21 C         138.1157  140.5040  164.7325 C.ar    1  UNL1        0.0054
     22 C         138.1131  139.2540  165.5617 C.ar    1  UNL1        0.0001
     23 C         138.9492  139.1768  166.8046 C.ar    1  UNL1        0.0047
     24 C         139.7879  140.3497  167.2184 C.ar    1  UNL1        0.0821
     25 C         139.7905  141.5997  166.3893 C.ar    1  UNL1        0.0659
     26 CL        140.6291  142.7724  166.8031 Cl      1  UNL1       -0.0822
     27 C         140.6241  140.2724  168.4614 C.3     1  UNL1        0.4194
     28 F         141.4602  140.1952  169.7044 F       1  UNL1       -0.1658
     29 F         139.4878  140.8380  169.2609 F       1  UNL1       -0.1658
     30 F         141.7603  139.7069  167.6619 F       1  UNL1       -0.1658
@<TRIPOS>BOND
     1     2     1    1
     2     2     3    1
     3     3     4   ar
     4     4     5   ar
     5     5     6   ar
     6     6    13    1
     7    13    14   ar
     8    14    15   ar
     9    15    16   ar
    10    16    17    1
    11    16    18   ar
    12    18    19   ar
    13     6     7   ar
    14     7     8    1
    15     8     9    1
    16     9    10    1
    17    10    11   am
    18    11    12    2
    19    11    20    1
    20    20    21   ar
    21    21    22   ar
    22    22    23   ar
    23    23    24   ar
    24    24    27    1
    25    27    28    1
    26    27    29    1
    27    27    30    1
    28    24    25   ar
    29    25    26    1
    30    10     2    1
    31    25    20   ar
    32     7     3   ar
    33    19    13   ar
@<TRIPOS>MOLECULE
*****
 30 33 0 0 0
SMALL
GASTEIGER

@<TRIPOS>ATOM
      1 C         143.6229  141.7677  159.4339 C.3     1  UNL1        0.0281
      2 C         143.3132  140.3043  159.5466 C.3     1  UNL1        0.1170
      3 C         143.2258  139.4588  158.3107 C.ar    1  UNL1        0.0907
      4 N         143.3957  139.7861  156.8567 N.ar    1  UNL1       -0.2267
      5 C         143.1909  138.5250  156.0708 C.ar    1  UNL1        0.1834
      6 N         142.8945  137.4183  157.0390 N.ar    1  UNL1       -0.2768
      7 C         142.9161  137.9955  158.4234 C.ar    1  UNL1        0.0610
      8 C         142.6937  137.3776  159.7720 C.3     1  UNL1        0.0670
      9 C         142.7811  138.2231  161.0079 C.3     1  UNL1        0.1003
     10 N         143.0908  139.6864  160.8952 N.am    1  UNL1       -0.2720
     11 C         143.1781  140.5319  162.1312 C.2     1  UNL1        0.2501
     12 O         143.4878  141.9953  162.0185 O.2     1  UNL1       -0.2699
     13 C         142.6241  135.9860  156.6851 C.ar    1  UNL1        0.1488
     14 C         141.5949  135.6516  155.6463 C.ar    1  UNL1        0.0398
     15 C         141.3244  134.2193  155.2923 C.ar    1  UNL1        0.0343
     16 C         142.0831  133.1214  155.9770 C.ar    1  UNL1        0.1593
     17 F         141.8126  131.6891  155.6231 F       1  UNL1       -0.2025
     18 C         143.1123  133.4558  157.0158 C.ar    1  UNL1        0.1300
     19 N         143.3828  134.8880  157.3698 N.ar    1  UNL1       -0.2240
     20 C         142.9558  139.9141  163.4799 C.ar    1  UNL1        0.0641
     21 C         144.1219  139.3992  164.2704 C.ar    1  UNL1        0.0054
     22 C         143.8995  138.7813  165.6191 C.ar    1  UNL1        0.0001
     23 C         142.5110  138.6784  166.1771 C.ar    1  UNL1        0.0047
     24 C         141.3448  139.1933  165.3865 C.ar    1  UNL1        0.0821
     25 C         141.5672  139.8112  164.0379 C.ar    1  UNL1        0.0659
     26 CL        140.4011  140.3261  163.2474 Cl      1  UNL1       -0.0822
     27 C         139.9563  139.0904  165.9446 C.3     1  UNL1        0.4194
     28 F         138.5678  138.9875  166.5027 F       1  UNL1       -0.1658
     29 F         139.7758  137.7720  165.2524 F       1  UNL1       -0.1658
     30 F         140.1368  140.4089  166.6368 F       1  UNL1       -0.1658
@<TRIPOS>BOND
     1     2     1    1
     2     2     3    1
     3     3     4   ar
     4     4     5   ar
     5     5     6   ar
     6     6    13    1
     7    13    14   ar
     8    14    15   ar
     9    15    16   ar
    10    16    17    1
    11    16    18   ar
    12    18    19   ar
    13     6     7   ar
    14     7     8    1
    15     8     9    1
    16     9    10    1
    17    10    11   am
    18    11    12    2
    19    11    20    1
    20    20    21   ar
    21    21    22   ar
    22    22    23   ar
    23    23    24   ar
    24    24    27    1
    25    27    28    1
    26    27    29    1
    27    27    30    1
    28    24    25   ar
    29    25    26    1
    30    10     2    1
    31    25    20   ar
    32     7     3   ar
    33    19    13   ar
@<TRIPOS>MOLECULE
*****
 30 33 0 0 0
SMALL
GASTEIGER

@<TRIPOS>ATOM
      1 C         143.9993  137.7880  161.1655 C.3     1  UNL1        0.0281
      2 C         142.6829  138.3112  160.6721 C.3     1  UNL1        0.1170
      3 C         142.2571  138.0557  159.2567 C.ar    1  UNL1        0.0907
      4 N         142.9191  137.3260  158.1257 N.ar    1  UNL1       -0.2267
      5 C         142.0118  137.3983  156.9334 C.ar    1  UNL1        0.1834
      6 N         140.7891  138.1726  157.3275 N.ar    1  UNL1       -0.2768
      7 C         140.9407  138.5789  158.7635 C.ar    1  UNL1        0.0610
      8 C         140.0501  139.3577  159.6856 C.3     1  UNL1        0.0670
      9 C         140.4759  139.6133  161.1009 C.3     1  UNL1        0.1003
     10 N         141.7922  139.0901  161.5942 N.am    1  UNL1       -0.2720
     11 C         142.2180  139.3457  163.0097 C.2     1  UNL1        0.2501
     12 O         143.5344  138.8225  163.5030 O.2     1  UNL1       -0.2699
     13 C         139.6201  138.4856  156.4413 C.ar    1  UNL1        0.1488
     14 C         139.1513  139.9025  156.2907 C.ar    1  UNL1        0.0398
     15 C         137.9823  140.2156  155.4045 C.ar    1  UNL1        0.0343
     16 C         137.2821  139.1119  154.6689 C.ar    1  UNL1        0.1593
     17 F         136.1130  139.4249  153.7826 F       1  UNL1       -0.2025
     18 C         137.7509  137.6949  154.8194 C.ar    1  UNL1        0.1300
     19 N         138.9198  137.3818  155.7056 N.ar    1  UNL1       -0.2240
     20 C         141.3274  140.1245  163.9318 C.ar    1  UNL1        0.0641
     21 C         141.3460  141.6241  163.9032 C.ar    1  UNL1        0.0054
     22 C         140.4554  142.4029  164.8254 C.ar    1  UNL1        0.0001
     23 C         139.5462  141.6821  165.7760 C.ar    1  UNL1        0.0047
     24 C         139.5276  140.1824  165.8046 C.ar    1  UNL1        0.0821
     25 C         140.4182  139.4036  164.8825 C.ar    1  UNL1        0.0659
     26 CL        140.3996  137.9040  164.9111 Cl      1  UNL1       -0.0822
     27 C         138.6184  139.4616  166.7553 C.3     1  UNL1        0.4194
     28 F         137.7092  138.7408  167.7060 F       1  UNL1       -0.1658
     29 F         139.6518  139.5831  167.8357 F       1  UNL1       -0.1658
     30 F         137.5850  139.3401  165.6749 F       1  UNL1       -0.1658
@<TRIPOS>BOND
     1     2     1    1
     2     2     3    1
     3     3     4   ar
     4     4     5   ar
     5     5     6   ar
     6     6    13    1
     7    13    14   ar
     8    14    15   ar
     9    15    16   ar
    10    16    17    1
    11    16    18   ar
    12    18    19   ar
    13     6     7   ar
    14     7     8    1
    15     8     9    1
    16     9    10    1
    17    10    11   am
    18    11    12    2
    19    11    20    1
    20    20    21   ar
    21    21    22   ar
    22    22    23   ar
    23    23    24   ar
    24    24    27    1
    25    27    28    1
    26    27    29    1
    27    27    30    1
    28    24    25   ar
    29    25    26    1
    30    10     2    1
    31    25    20   ar
    32     7     3   ar
    33    19    13   ar
@<TRIPOS>MOLECULE
*****
 30 33 0 0 0
SMALL
GASTEIGER

@<TRIPOS>ATOM
      1 C         143.5295  138.4925  162.4441 C.3     1  UNL1        0.0281
      2 C         142.6705  139.4857  163.1692 C.3     1  UNL1        0.1170
      3 C         142.6129  139.4744  164.6681 C.ar    1  UNL1        0.0907
      4 N         143.2868  138.6098  165.6919 N.ar    1  UNL1       -0.2267
      5 C         142.8443  139.0686  167.0497 C.ar    1  UNL1        0.1834
      6 N         141.8969  140.2168  166.8650 N.ar    1  UNL1       -0.2768
      7 C         141.7539  140.4676  165.3931 C.ar    1  UNL1        0.0610
      8 C         140.9525  141.4721  164.6193 C.3     1  UNL1        0.0670
      9 C         141.0101  141.4834  163.1204 C.3     1  UNL1        0.1003
     10 N         141.8691  140.4902  162.3954 N.am    1  UNL1       -0.2720
     11 C         141.9267  140.5015  160.8965 C.2     1  UNL1        0.2501
     12 O         142.7857  139.5083  160.1715 O.2     1  UNL1       -0.2699
     13 C         141.2127  140.9802  167.9601 C.ar    1  UNL1        0.1488
     14 C         141.5435  142.4256  168.1864 C.ar    1  UNL1        0.0398
     15 C         140.8592  143.1890  169.2815 C.ar    1  UNL1        0.0343
     16 C         139.8443  142.5070  170.1502 C.ar    1  UNL1        0.1593
     17 F         139.1601  143.2703  171.2452 F       1  UNL1       -0.2025
     18 C         139.5136  141.0614  169.9238 C.ar    1  UNL1        0.1300
     19 N         140.1978  140.2981  168.8288 N.ar    1  UNL1       -0.2240
     20 C         141.1253  141.5059  160.1227 C.ar    1  UNL1        0.0641
     21 C         139.6824  141.2366  159.8135 C.ar    1  UNL1        0.0054
     22 C         138.8810  142.2411  159.0397 C.ar    1  UNL1        0.0001
     23 C         139.5225  143.5149  158.5751 C.ar    1  UNL1        0.0047
     24 C         140.9654  143.7842  158.8843 C.ar    1  UNL1        0.0821
     25 C         141.7668  142.7798  159.6581 C.ar    1  UNL1        0.0659
     26 CL        143.2096  143.0492  159.9672 Cl      1  UNL1       -0.0822
     27 C         141.6068  145.0581  158.4196 C.3     1  UNL1        0.4194
     28 F         142.2483  146.3319  157.9550 F       1  UNL1       -0.1658
     29 F         141.3136  145.6902  159.7479 F       1  UNL1       -0.1658
     30 F         141.9000  144.4259  157.0913 F       1  UNL1       -0.1658
@<TRIPOS>BOND
     1     2     1    1
     2     2     3    1
     3     3     4   ar
     4     4     5   ar
     5     5     6   ar
     6     6    13    1
     7    13    14   ar
     8    14    15   ar
     9    15    16   ar
    10    16    17    1
    11    16    18   ar
    12    18    19   ar
    13     6     7   ar
    14     7     8    1
    15     8     9    1
    16     9    10    1
    17    10    11   am
    18    11    12    2
    19    11    20    1
    20    20    21   ar
    21    21    22   ar
    22    22    23   ar
    23    23    24   ar
    24    24    27    1
    25    27    28    1
    26    27    29    1
    27    27    30    1
    28    24    25   ar
    29    25    26    1
    30    10     2    1
    31    25    20   ar
    32     7     3   ar
    33    19    13   ar
@<TRIPOS>MOLECULE
*****
 30 33 0 0 0
SMALL
GASTEIGER

@<TRIPOS>ATOM
      1 C         138.4715  138.8044  163.0227 C.3     1  UNL1        0.0281
      2 C         139.4351  139.7764  163.6366 C.3     1  UNL1        0.1170
      3 C         139.5349  139.8927  165.1287 C.ar    1  UNL1        0.0907
      4 N         138.8176  139.1862  166.2407 N.ar    1  UNL1       -0.2267
      5 C         139.3379  139.7217  167.5417 C.ar    1  UNL1        0.1834
      6 N         140.3767  140.7590  167.2338 N.ar    1  UNL1       -0.2768
      7 C         140.4985  140.8647  165.7425 C.ar    1  UNL1        0.0610
      8 C         141.3622  141.7205  164.8641 C.3     1  UNL1        0.0670
      9 C         141.2624  141.6042  163.3719 C.3     1  UNL1        0.1003
     10 N         140.2989  140.6322  162.7582 N.am    1  UNL1       -0.2720
     11 C         140.1991  140.5159  161.2660 C.2     1  UNL1        0.2501
     12 O         139.2355  139.5439  160.6522 O.2     1  UNL1       -0.2699
     13 C         141.1568  141.5515  168.2404 C.ar    1  UNL1        0.1488
     14 C         140.5118  142.7053  168.9495 C.ar    1  UNL1        0.0398
     15 C         141.2919  143.4978  169.9562 C.ar    1  UNL1        0.0343
     16 C         142.7169  143.1366  170.2538 C.ar    1  UNL1        0.1593
     17 F         143.4970  143.9291  171.2605 F       1  UNL1       -0.2025
     18 C         143.3619  141.9828  169.5447 C.ar    1  UNL1        0.1300
     19 N         142.5819  141.1902  168.5381 N.ar    1  UNL1       -0.2240
     20 C         141.0628  141.3717  160.3876 C.ar    1  UNL1        0.0641
     21 C         142.4247  140.8931  159.9799 C.ar    1  UNL1        0.0054
     22 C         143.2885  141.7490  159.1014 C.ar    1  UNL1        0.0001
     23 C         142.7903  143.0832  158.6308 C.ar    1  UNL1        0.0047
     24 C         141.4284  143.5617  159.0385 C.ar    1  UNL1        0.0821
     25 C         140.5646  142.7060  159.9169 C.ar    1  UNL1        0.0659
     26 CL        139.2027  143.1845  160.3246 Cl      1  UNL1       -0.0822
     27 C         140.9302  144.8960  158.5678 C.3     1  UNL1        0.4194
     28 F         140.4321  146.2303  158.0971 F       1  UNL1       -0.1658
     29 F         141.4058  145.5239  159.8444 F       1  UNL1       -0.1658
     30 F         140.4547  144.2682  157.2912 F       1  UNL1       -0.1658
@<TRIPOS>BOND
     1     2     1    1
     2     2     3    1
     3     3     4   ar
     4     4     5   ar
     5     5     6   ar
     6     6    13    1
     7    13    14   ar
     8    14    15   ar
     9    15    16   ar
    10    16    17    1
    11    16    18   ar
    12    18    19   ar
    13     6     7   ar
    14     7     8    1
    15     8     9    1
    16     9    10    1
    17    10    11   am
    18    11    12    2
    19    11    20    1
    20    20    21   ar
    21    21    22   ar
    22    22    23   ar
    23    23    24   ar
    24    24    27    1
    25    27    28    1
    26    27    29    1
    27    27    30    1
    28    24    25   ar
    29    25    26    1
    30    10     2    1
    31    25    20   ar
    32     7     3   ar
    33    19    13   ar
