@<TRIPOS>MOLECULE
*****
 35 38 0 0 0
SMALL
GASTEIGER

@<TRIPOS>ATOM
      1 C         141.9965  138.8273  161.5492 C.ar    1  UNL1        0.2204
      2 N         143.0697  138.0827  160.8117 N.ar    1  UNL1       -0.2089
      3 C         142.8686  137.7061  159.3738 C.ar    1  UNL1        0.1402
      4 C         141.5943  138.0742  158.6732 C.ar    1  UNL1        0.1773
      5 C         140.5211  138.8188  159.4106 C.ar    1  UNL1        0.1402
      6 N         140.7223  139.1954  160.8487 N.ar    1  UNL1       -0.2089
      7 C         141.0653  136.9855  163.7265 C.3     1  UNL1        0.0233
      8 C         141.7320  138.2830  164.0758 C.3     1  UNL1        0.0955
      9 C         141.9332  138.6596  165.5137 C.3     1  UNL1        0.1149
     10 N         142.5999  139.9571  165.8630 N.pl3   1  UNL1       -0.2590
     11 C         143.0655  140.8780  164.7744 C.3     1  UNL1        0.1166
     12 C         142.8644  140.5014  163.3365 C.3     1  UNL1        0.1151
     13 N         142.1976  139.2039  162.9872 N.pl3   1  UNL1       -0.2764
     14 C         142.8010  140.3337  167.3011 C.ar    1  UNL1        0.3120
     15 N         142.8796  139.3831  168.4587 N.ar    1  UNL1       -0.0922
     16 N         143.0860  140.1889  169.7070 N.ar    1  UNL1       -0.1018
     17 C         143.1350  141.6375  169.3207 C.ar    1  UNL1        0.3233
     18 O         142.9588  141.7270  167.8338 O.2     1  UNL1       -0.4012
     19 C         143.3265  142.7937  170.2571 C.3     1  UNL1        0.4711
     20 F         143.5179  143.9498  171.1934 F       1  UNL1       -0.1619
     21 F         144.8117  142.6992  170.0699 F       1  UNL1       -0.1619
     22 F         141.8412  142.8881  170.4442 F       1  UNL1       -0.1619
     23 O         141.3933  137.6976  157.2353 O.3     1  UNL1       -0.4674
     24 C         142.4823  136.9882  156.4864 C.3     1  UNL1        0.2344
     25 C         142.4589  135.4933  156.3663 C.ar    1  UNL1        0.0487
     26 C         143.3901  134.6596  157.1957 C.ar    1  UNL1        0.0029
     27 C         143.3667  133.1645  157.0755 C.ar    1  UNL1        0.0183
     28 C         142.4122  132.5032  156.1260 C.ar    1  UNL1        0.1079
     29 C         141.4810  133.3370  155.2966 C.ar    1  UNL1        0.0478
     30 C         141.5044  134.8319  155.4168 C.ar    1  UNL1        0.1409
     31 F         140.5732  135.6656  154.5874 F       1  UNL1       -0.2043
     32 S         142.3888  131.0083  156.0059 S.O2    1  UNL1        0.0105
     33 C         142.3654  129.5132  155.8857 C.3     1  UNL1        0.1816
     34 O         141.3370  131.1102  154.9415 O.2     1  UNL1       -0.1686
     35 O         143.4407  130.9063  157.0703 O.2     1  UNL1       -0.1686
@<TRIPOS>BOND
     1     8     7    1
     2     8     9    1
     3     9    10    1
     4    10    14    1
     5    14    15   ar
     6    15    16   ar
     7    16    17   ar
     8    17    19    1
     9    19    20    1
    10    19    21    1
    11    19    22    1
    12    17    18   ar
    13    10    11    1
    14    11    12    1
    15    12    13    1
    16    13     1    1
    17     1     2   ar
    18     2     3   ar
    19     3     4   ar
    20     4    23    1
    21    23    24    1
    22    24    25    1
    23    25    26   ar
    24    26    27   ar
    25    27    28   ar
    26    28    32    1
    27    32    33    1
    28    32    34    2
    29    32    35    2
    30    28    29   ar
    31    29    30   ar
    32    30    31    1
    33     4     5   ar
    34     5     6   ar
    35    13     8    1
    36     6     1   ar
    37    18    14   ar
    38    30    25   ar
@<TRIPOS>MOLECULE
*****
 35 38 0 0 0
SMALL
GASTEIGER

@<TRIPOS>ATOM
      1 C         140.9277  144.5865  159.4302 C.ar    1  UNL1        0.2204
      2 N         139.7893  144.3286  158.4880 N.ar    1  UNL1       -0.2089
      3 C         139.8186  144.9008  157.1018 C.ar    1  UNL1        0.1402
      4 C         140.9863  145.7311  156.6577 C.ar    1  UNL1        0.1773
      5 C         142.1247  145.9891  157.5998 C.ar    1  UNL1        0.1402
      6 N         142.0953  145.4168  158.9861 N.ar    1  UNL1       -0.2089
      7 C         139.7841  146.1918  161.6919 C.3     1  UNL1        0.0233
      8 C         140.3266  144.8168  161.9472 C.3     1  UNL1        0.0955
      9 C         140.2972  144.2445  163.3334 C.3     1  UNL1        0.1149
     10 N         140.8397  142.8695  163.5887 N.pl3   1  UNL1       -0.2590
     11 C         141.4114  142.0668  162.4579 C.3     1  UNL1        0.1166
     12 C         141.4408  142.6392  161.0718 C.3     1  UNL1        0.1151
     13 N         140.8983  144.0142  160.8164 N.pl3   1  UNL1       -0.2764
     14 C         140.8103  142.2971  164.9750 C.ar    1  UNL1        0.3120
     15 N         141.2015  140.9015  165.3611 N.ar    1  UNL1       -0.0922
     16 N         141.0176  140.7618  166.8432 N.ar    1  UNL1       -0.1018
     17 C         140.5127  142.0712  167.3732 C.ar    1  UNL1        0.3233
     18 O         140.3846  143.0200  166.2185 O.2     1  UNL1       -0.4012
     19 C         140.1922  142.3778  168.8061 C.3     1  UNL1        0.4711
     20 F         139.8717  142.6844  170.2390 F       1  UNL1       -0.1619
     21 F         140.3085  140.9210  169.1438 F       1  UNL1       -0.1619
     22 F         140.0759  143.8346  168.4683 F       1  UNL1       -0.1619
     23 O         141.0156  146.3034  155.2715 O.3     1  UNL1       -0.4674
     24 C         139.7560  146.8311  154.6511 C.3     1  UNL1        0.2344
     25 C         139.4658  148.3024  154.6784 C.ar    1  UNL1        0.0487
     26 C         139.7936  149.1538  153.4878 C.ar    1  UNL1        0.0029
     27 C         139.5034  150.6253  153.5152 C.ar    1  UNL1        0.0183
     28 C         138.8852  151.2452  154.7331 C.ar    1  UNL1        0.1079
     29 C         138.5574  150.3939  155.9238 C.ar    1  UNL1        0.0478
     30 C         138.8476  148.9225  155.8965 C.ar    1  UNL1        0.1409
     31 F         138.5197  148.0711  157.0871 F       1  UNL1       -0.2043
     32 S         138.5950  152.7166  154.7604 S.O2    1  UNL1        0.0105
     33 C         138.3048  154.1881  154.7878 C.3     1  UNL1        0.1816
     34 O         138.9452  152.7586  156.2184 O.2     1  UNL1       -0.1686
     35 O         138.2448  152.6746  153.3025 O.2     1  UNL1       -0.1686
@<TRIPOS>BOND
     1     8     7    1
     2     8     9    1
     3     9    10    1
     4    10    14    1
     5    14    15   ar
     6    15    16   ar
     7    16    17   ar
     8    17    19    1
     9    19    20    1
    10    19    21    1
    11    19    22    1
    12    17    18   ar
    13    10    11    1
    14    11    12    1
    15    12    13    1
    16    13     1    1
    17     1     2   ar
    18     2     3   ar
    19     3     4   ar
    20     4    23    1
    21    23    24    1
    22    24    25    1
    23    25    26   ar
    24    26    27   ar
    25    27    28   ar
    26    28    32    1
    27    32    33    1
    28    32    34    2
    29    32    35    2
    30    28    29   ar
    31    29    30   ar
    32    30    31    1
    33     4     5   ar
    34     5     6   ar
    35    13     8    1
    36     6     1   ar
    37    18    14   ar
    38    30    25   ar
@<TRIPOS>MOLECULE
*****
 35 38 0 0 0
SMALL
GASTEIGER

@<TRIPOS>ATOM
      1 C         140.7419  138.5208  160.9432 C.ar    1  UNL1        0.2204
      2 N         139.6520  138.6314  159.9185 N.ar    1  UNL1       -0.2089
      3 C         139.9568  138.3879  158.4702 C.ar    1  UNL1        0.1402
      4 C         141.3515  138.0338  158.0464 C.ar    1  UNL1        0.1773
      5 C         142.4414  137.9232  159.0711 C.ar    1  UNL1        0.1402
      6 N         142.1365  138.1667  160.5195 N.ar    1  UNL1       -0.2089
      7 C         140.9809  141.2859  162.0822 C.3     1  UNL1        0.0233
      8 C         140.5566  140.1468  162.9611 C.3     1  UNL1        0.0955
      9 C         140.2517  140.3902  164.4094 C.3     1  UNL1        0.1149
     10 N         139.8274  139.2512  165.2883 N.pl3   1  UNL1       -0.2590
     11 C         139.7079  137.8686  164.7189 C.3     1  UNL1        0.1166
     12 C         140.0128  137.6252  163.2705 C.3     1  UNL1        0.1151
     13 N         140.4371  138.7643  162.3916 N.pl3   1  UNL1       -0.2764
     14 C         139.5226  139.4947  166.7367 C.ar    1  UNL1        0.3120
     15 N         138.3044  139.0216  167.4730 N.ar    1  UNL1       -0.0922
     16 N         138.4114  139.4885  168.8944 N.ar    1  UNL1       -0.1018
     17 C         139.6958  140.2503  169.0367 C.ar    1  UNL1        0.3233
     18 O         140.3825  140.2540  167.7031 O.2     1  UNL1       -0.4012
     19 C         140.2041  140.8950  170.2920 C.3     1  UNL1        0.4711
     20 F         140.7125  141.5397  171.5474 F       1  UNL1       -0.1619
     21 F         141.3987  139.9880  170.2741 F       1  UNL1       -0.1619
     22 F         139.0095  141.8019  170.3100 F       1  UNL1       -0.1619
     23 O         141.6563  137.7903  156.5980 O.3     1  UNL1       -0.4674
     24 C         142.8490  136.9673  156.2106 C.3     1  UNL1        0.2344
     25 C         142.7497  135.4710  156.1797 C.ar    1  UNL1        0.0487
     26 C         143.6791  134.6402  157.0139 C.ar    1  UNL1        0.0029
     27 C         143.5798  133.1438  156.9829 C.ar    1  UNL1        0.0183
     28 C         142.5510  132.4782  156.1177 C.ar    1  UNL1        0.1079
     29 C         141.6216  133.3090  155.2834 C.ar    1  UNL1        0.0478
     30 C         141.7209  134.8053  155.3144 C.ar    1  UNL1        0.1409
     31 F         140.7915  135.6361  154.4801 F       1  UNL1       -0.2043
     32 S         142.4517  130.9818  156.0867 S.O2    1  UNL1        0.0105
     33 C         142.3524  129.4854  156.0558 C.3     1  UNL1        0.1816
     34 O         143.5149  130.8894  157.1407 O.2     1  UNL1       -0.1686
     35 O         141.3885  131.0742  155.0327 O.2     1  UNL1       -0.1686
@<TRIPOS>BOND
     1     8     7    1
     2     8     9    1
     3     9    10    1
     4    10    14    1
     5    14    15   ar
     6    15    16   ar
     7    16    17   ar
     8    17    19    1
     9    19    20    1
    10    19    21    1
    11    19    22    1
    12    17    18   ar
    13    10    11    1
    14    11    12    1
    15    12    13    1
    16    13     1    1
    17     1     2   ar
    18     2     3   ar
    19     3     4   ar
    20     4    23    1
    21    23    24    1
    22    24    25    1
    23    25    26   ar
    24    26    27   ar
    25    27    28   ar
    26    28    32    1
    27    32    33    1
    28    32    34    2
    29    32    35    2
    30    28    29   ar
    31    29    30   ar
    32    30    31    1
    33     4     5   ar
    34     5     6   ar
    35    13     8    1
    36     6     1   ar
    37    18    14   ar
    38    30    25   ar
@<TRIPOS>MOLECULE
*****
 35 38 0 0 0
SMALL
GASTEIGER

@<TRIPOS>ATOM
      1 C         138.9892  142.3077  161.2535 C.ar    1  UNL1        0.2204
      2 N         137.7223  142.5237  162.0269 N.ar    1  UNL1       -0.2089
      3 C         137.4410  141.7023  163.2501 C.ar    1  UNL1        0.1402
      4 C         138.4266  140.6648  163.6998 C.ar    1  UNL1        0.1773
      5 C         139.6935  140.4488  162.9264 C.ar    1  UNL1        0.1402
      6 N         139.9748  141.2702  161.7032 N.ar    1  UNL1       -0.2089
      7 C         140.4486  144.9170  161.5018 C.3     1  UNL1        0.0233
      8 C         140.0001  144.4337  160.1544 C.3     1  UNL1        0.0955
      9 C         140.2814  145.2551  158.9313 C.3     1  UNL1        0.1149
     10 N         139.8330  144.7719  157.5839 N.pl3   1  UNL1       -0.2590
     11 C         139.1033  143.4672  157.4597 C.3     1  UNL1        0.1166
     12 C         138.8220  142.6459  158.6829 C.3     1  UNL1        0.1151
     13 N         139.2705  143.1291  160.0303 N.pl3   1  UNL1       -0.2764
     14 C         140.1142  145.5933  156.3607 C.ar    1  UNL1        0.3120
     15 N         141.0494  145.2251  155.2472 N.ar    1  UNL1       -0.0922
     16 N         141.0229  146.3314  154.2346 N.ar    1  UNL1       -0.1018
     17 C         140.0712  147.3834  154.7223 C.ar    1  UNL1        0.3233
     18 O         139.5097  146.9272  156.0362 O.2     1  UNL1       -0.4012
     19 C         139.7394  148.6663  154.0194 C.3     1  UNL1        0.4711
     20 F         139.4076  149.9491  153.3164 F       1  UNL1       -0.1619
     21 F         138.9857  149.1341  155.2289 F       1  UNL1       -0.1619
     22 F         140.4932  148.1985  152.8098 F       1  UNL1       -0.1619
     23 O         138.1453  139.8434  164.9230 O.3     1  UNL1       -0.4674
     24 C         139.2780  139.2282  165.6901 C.3     1  UNL1        0.2344
     25 C         140.0342  140.0452  166.6954 C.ar    1  UNL1        0.0487
     26 C         141.2945  140.7516  166.2923 C.ar    1  UNL1        0.0029
     27 C         142.0507  141.5686  167.2977 C.ar    1  UNL1        0.0183
     28 C         141.5465  141.6792  168.7061 C.ar    1  UNL1        0.1079
     29 C         140.2862  140.9728  169.1091 C.ar    1  UNL1        0.0478
     30 C         139.5300  140.1558  168.1038 C.ar    1  UNL1        0.1409
     31 F         138.2696  139.4494  168.5069 F       1  UNL1       -0.2043
     32 S         142.3027  142.4962  169.7114 S.O2    1  UNL1        0.0105
     33 C         143.0589  143.3133  170.7167 C.3     1  UNL1        0.1816
     34 O         141.1598  142.3690  170.6744 O.2     1  UNL1       -0.1686
     35 O         143.4456  142.6234  168.7483 O.2     1  UNL1       -0.1686
@<TRIPOS>BOND
     1     8     7    1
     2     8     9    1
     3     9    10    1
     4    10    14    1
     5    14    15   ar
     6    15    16   ar
     7    16    17   ar
     8    17    19    1
     9    19    20    1
    10    19    21    1
    11    19    22    1
    12    17    18   ar
    13    10    11    1
    14    11    12    1
    15    12    13    1
    16    13     1    1
    17     1     2   ar
    18     2     3   ar
    19     3     4   ar
    20     4    23    1
    21    23    24    1
    22    24    25    1
    23    25    26   ar
    24    26    27   ar
    25    27    28   ar
    26    28    32    1
    27    32    33    1
    28    32    34    2
    29    32    35    2
    30    28    29   ar
    31    29    30   ar
    32    30    31    1
    33     4     5   ar
    34     5     6   ar
    35    13     8    1
    36     6     1   ar
    37    18    14   ar
    38    30    25   ar
@<TRIPOS>MOLECULE
*****
 35 38 0 0 0
SMALL
GASTEIGER

@<TRIPOS>ATOM
      1 C         141.1101  141.6086  159.1215 C.ar    1  UNL1        0.2204
      2 N         142.0520  142.7746  159.1799 N.ar    1  UNL1       -0.2089
      3 C         141.5678  144.1059  159.6730 C.ar    1  UNL1        0.1402
      4 C         140.1417  144.2713  160.1076 C.ar    1  UNL1        0.1773
      5 C         139.1998  143.1053  160.0492 C.ar    1  UNL1        0.1402
      6 N         139.6841  141.7740  159.5561 N.ar    1  UNL1       -0.2089
      7 C         142.2780  139.6292  161.0497 C.3     1  UNL1        0.0233
      8 C         142.1783  139.2876  159.5925 C.3     1  UNL1        0.0955
      9 C         142.6626  137.9563  159.0994 C.3     1  UNL1        0.1149
     10 N         142.5629  137.6148  157.6422 N.pl3   1  UNL1       -0.2590
     11 C         141.9790  138.6045  156.6781 C.3     1  UNL1        0.1166
     12 C         141.4947  139.9357  157.1712 C.3     1  UNL1        0.1151
     13 N         141.5944  140.2773  158.6284 N.pl3   1  UNL1       -0.2764
     14 C         143.0472  136.2834  157.1491 C.ar    1  UNL1        0.3120
     15 N         143.4248  135.9507  155.7361 N.ar    1  UNL1       -0.0922
     16 N         143.8499  134.5127  155.6962 N.ar    1  UNL1       -0.1018
     17 C         143.7349  133.9567  157.0846 C.ar    1  UNL1        0.3233
     18 O         143.2388  135.0510  157.9825 O.2     1  UNL1       -0.4012
     19 C         144.0590  132.5528  157.5018 C.3     1  UNL1        0.4711
     20 F         144.3832  131.1490  157.9190 F       1  UNL1       -0.1619
     21 F         142.8555  132.0540  156.7585 F       1  UNL1       -0.1619
     22 F         145.2626  133.0516  158.2452 F       1  UNL1       -0.1619
     23 O         139.6575  145.6026  160.6007 O.3     1  UNL1       -0.4674
     24 C         139.9086  146.0128  162.0215 C.3     1  UNL1        0.2344
     25 C         139.9359  144.9781  163.1072 C.ar    1  UNL1        0.0487
     26 C         141.2397  144.5849  163.7360 C.ar    1  UNL1        0.0029
     27 C         141.2669  143.5502  164.8217 C.ar    1  UNL1        0.0183
     28 C         139.9903  142.9088  165.2786 C.ar    1  UNL1        0.1079
     29 C         138.6864  143.3020  164.6498 C.ar    1  UNL1        0.0478
     30 C         138.6592  144.3367  163.5641 C.ar    1  UNL1        0.1409
     31 F         137.3553  144.7299  162.9354 F       1  UNL1       -0.2043
     32 S         140.0175  141.8742  166.3643 S.O2    1  UNL1        0.0105
     33 C         140.0447  140.8395  167.4500 C.3     1  UNL1        0.1816
     34 O         139.0825  141.0135  165.5675 O.2     1  UNL1       -0.1686
     35 O         140.9525  142.7349  167.1611 O.2     1  UNL1       -0.1686
@<TRIPOS>BOND
     1     8     7    1
     2     8     9    1
     3     9    10    1
     4    10    14    1
     5    14    15   ar
     6    15    16   ar
     7    16    17   ar
     8    17    19    1
     9    19    20    1
    10    19    21    1
    11    19    22    1
    12    17    18   ar
    13    10    11    1
    14    11    12    1
    15    12    13    1
    16    13     1    1
    17     1     2   ar
    18     2     3   ar
    19     3     4   ar
    20     4    23    1
    21    23    24    1
    22    24    25    1
    23    25    26   ar
    24    26    27   ar
    25    27    28   ar
    26    28    32    1
    27    32    33    1
    28    32    34    2
    29    32    35    2
    30    28    29   ar
    31    29    30   ar
    32    30    31    1
    33     4     5   ar
    34     5     6   ar
    35    13     8    1
    36     6     1   ar
    37    18    14   ar
    38    30    25   ar
@<TRIPOS>MOLECULE
*****
 35 38 0 0 0
SMALL
GASTEIGER

@<TRIPOS>ATOM
      1 C         141.1810  144.6615  159.9927 C.ar    1  UNL1        0.2204
      2 N         139.9872  145.4276  159.5048 N.ar    1  UNL1       -0.2089
      3 C         139.9629  145.9672  158.1055 C.ar    1  UNL1        0.1402
      4 C         141.1325  145.7409  157.1939 C.ar    1  UNL1        0.1773
      5 C         142.3263  144.9748  157.6817 C.ar    1  UNL1        0.1402
      6 N         142.3505  144.4351  159.0812 N.ar    1  UNL1       -0.2089
      7 C         140.4613  141.7950  160.5076 C.3     1  UNL1        0.0233
      8 C         140.8454  142.6887  161.6495 C.3     1  UNL1        0.0955
      9 C         140.8697  142.1491  163.0489 C.3     1  UNL1        0.1149
     10 N         141.2537  143.0427  164.1907 N.pl3   1  UNL1       -0.2590
     11 C         141.6135  144.4760  163.9333 C.3     1  UNL1        0.1166
     12 C         141.5893  145.0155  162.5339 C.3     1  UNL1        0.1151
     13 N         141.2052  144.1219  161.3921 N.pl3   1  UNL1       -0.2764
     14 C         141.2780  142.5031  165.5902 C.ar    1  UNL1        0.3120
     15 N         140.0999  141.9692  166.3498 N.ar    1  UNL1       -0.0922
     16 N         140.5784  141.5387  167.7047 N.ar    1  UNL1       -0.1018
     17 C         142.0523  141.8066  167.7824 C.ar    1  UNL1        0.3233
     18 O         142.4846  142.4026  166.4756 O.2     1  UNL1       -0.4012
     19 C         142.9382  141.5274  168.9602 C.3     1  UNL1        0.4711
     20 F         143.8241  141.2483  170.1380 F       1  UNL1       -0.1619
     21 F         142.9449  142.9881  169.3013 F       1  UNL1       -0.1619
     22 F         142.9314  140.0668  168.6191 F       1  UNL1       -0.1619
     23 O         141.1082  146.2805  155.7946 O.3     1  UNL1       -0.4674
     24 C         139.8127  146.7297  155.1863 C.3     1  UNL1        0.2344
     25 C         139.5153  148.1936  155.0512 C.ar    1  UNL1        0.0487
     26 C         138.7309  148.9010  156.1163 C.ar    1  UNL1        0.0029
     27 C         138.4335  150.3651  155.9811 C.ar    1  UNL1        0.0183
     28 C         138.9205  151.1216  154.7810 C.ar    1  UNL1        0.1079
     29 C         139.7049  150.4142  153.7159 C.ar    1  UNL1        0.0478
     30 C         140.0023  148.9503  153.8510 C.ar    1  UNL1        0.1409
     31 F         140.7867  148.2429  152.7860 F       1  UNL1       -0.2043
     32 S         138.6231  152.5856  154.6459 S.O2    1  UNL1        0.0105
     33 C         138.3257  154.0497  154.5108 C.3     1  UNL1        0.1816
     34 O         138.8489  152.7673  156.1176 O.2     1  UNL1       -0.1686
     35 O         138.3974  152.4039  153.1742 O.2     1  UNL1       -0.1686
@<TRIPOS>BOND
     1     8     7    1
     2     8     9    1
     3     9    10    1
     4    10    14    1
     5    14    15   ar
     6    15    16   ar
     7    16    17   ar
     8    17    19    1
     9    19    20    1
    10    19    21    1
    11    19    22    1
    12    17    18   ar
    13    10    11    1
    14    11    12    1
    15    12    13    1
    16    13     1    1
    17     1     2   ar
    18     2     3   ar
    19     3     4   ar
    20     4    23    1
    21    23    24    1
    22    24    25    1
    23    25    26   ar
    24    26    27   ar
    25    27    28   ar
    26    28    32    1
    27    32    33    1
    28    32    34    2
    29    32    35    2
    30    28    29   ar
    31    29    30   ar
    32    30    31    1
    33     4     5   ar
    34     5     6   ar
    35    13     8    1
    36     6     1   ar
    37    18    14   ar
    38    30    25   ar
@<TRIPOS>MOLECULE
*****
 35 38 0 0 0
SMALL
GASTEIGER

@<TRIPOS>ATOM
      1 C         139.7859  141.1452  159.7870 C.ar    1  UNL1        0.2204
      2 N         140.9534  140.2105  159.6722 N.ar    1  UNL1       -0.2089
      3 C         141.0000  138.9630  160.5038 C.ar    1  UNL1        0.1402
      4 C         139.8790  138.6502  161.4502 C.ar    1  UNL1        0.1773
      5 C         138.7115  139.5849  161.5650 C.ar    1  UNL1        0.1402
      6 N         138.6650  140.8325  160.7334 N.ar    1  UNL1       -0.2089
      7 C         141.0183  143.6800  160.8148 C.3     1  UNL1        0.0233
      8 C         140.3556  143.6601  159.4693 C.3     1  UNL1        0.0955
      9 C         140.3090  144.9076  158.6377 C.3     1  UNL1        0.1149
     10 N         139.6463  144.8877  157.2922 N.pl3   1  UNL1       -0.2590
     11 C         139.0302  143.6204  156.7782 C.3     1  UNL1        0.1166
     12 C         139.0767  142.3729  157.6099 C.3     1  UNL1        0.1151
     13 N         139.7394  142.3928  158.9554 N.pl3   1  UNL1       -0.2764
     14 C         139.5998  146.1353  156.4605 C.ar    1  UNL1        0.3120
     15 N         140.2245  146.3178  155.1091 N.ar    1  UNL1       -0.0922
     16 N         139.9312  147.7146  154.6477 N.ar    1  UNL1       -0.1018
     17 C         139.1252  148.3954  155.7141 C.ar    1  UNL1        0.3233
     18 O         138.9204  147.4193  156.8344 O.2     1  UNL1       -0.4012
     19 C         138.6138  149.8048  155.6681 C.3     1  UNL1        0.4711
     20 F         138.1024  151.2141  155.6220 F       1  UNL1       -0.1619
     21 F         139.1561  149.9561  154.2777 F       1  UNL1       -0.1619
     22 F         138.0715  149.6534  157.0584 F       1  UNL1       -0.1619
     23 O         139.9255  137.4027  162.2817 O.3     1  UNL1       -0.4674
     24 C         140.8803  137.3049  163.4345 C.3     1  UNL1        0.2344
     25 C         140.6516  138.1249  164.6694 C.ar    1  UNL1        0.0487
     26 C         139.2537  138.4049  165.1356 C.ar    1  UNL1        0.0029
     27 C         139.0250  139.2250  166.3706 C.ar    1  UNL1        0.0183
     28 C         140.1942  139.7651  167.1394 C.ar    1  UNL1        0.1079
     29 C         141.5922  139.4851  166.6733 C.ar    1  UNL1        0.0478
     30 C         141.8209  138.6650  165.4383 C.ar    1  UNL1        0.1409
     31 F         143.2189  138.3850  164.9722 F       1  UNL1       -0.2043
     32 S         139.9655  140.5851  168.3744 S.O2    1  UNL1        0.0105
     33 C         139.7368  141.4052  169.6094 C.3     1  UNL1        0.1816
     34 O         139.0779  139.5085  168.9249 O.2     1  UNL1       -0.1686
     35 O         140.8531  141.6617  167.8239 O.2     1  UNL1       -0.1686
@<TRIPOS>BOND
     1     8     7    1
     2     8     9    1
     3     9    10    1
     4    10    14    1
     5    14    15   ar
     6    15    16   ar
     7    16    17   ar
     8    17    19    1
     9    19    20    1
    10    19    21    1
    11    19    22    1
    12    17    18   ar
    13    10    11    1
    14    11    12    1
    15    12    13    1
    16    13     1    1
    17     1     2   ar
    18     2     3   ar
    19     3     4   ar
    20     4    23    1
    21    23    24    1
    22    24    25    1
    23    25    26   ar
    24    26    27   ar
    25    27    28   ar
    26    28    32    1
    27    32    33    1
    28    32    34    2
    29    32    35    2
    30    28    29   ar
    31    29    30   ar
    32    30    31    1
    33     4     5   ar
    34     5     6   ar
    35    13     8    1
    36     6     1   ar
    37    18    14   ar
    38    30    25   ar
@<TRIPOS>MOLECULE
*****
 35 38 0 0 0
SMALL
GASTEIGER

@<TRIPOS>ATOM
      1 C         141.5702  143.6604  159.6971 C.ar    1  UNL1        0.2204
      2 N         141.5594  145.0122  160.3470 N.ar    1  UNL1       -0.2089
      3 C         140.4441  145.3884  161.2768 C.ar    1  UNL1        0.1402
      4 C         139.3396  144.4128  161.5567 C.ar    1  UNL1        0.1773
      5 C         139.3504  143.0610  160.9067 C.ar    1  UNL1        0.1402
      6 N         140.4657  142.6848  159.9769 N.ar    1  UNL1       -0.2089
      7 C         144.1699  142.6517  160.8036 C.3     1  UNL1        0.0233
      8 C         143.9854  142.7798  159.3205 C.3     1  UNL1        0.0955
      9 C         145.1006  142.4036  158.3907 C.3     1  UNL1        0.1149
     10 N         144.9161  142.5317  156.9076 N.pl3   1  UNL1       -0.2590
     11 C         143.6163  143.0360  156.3543 C.3     1  UNL1        0.1166
     12 C         142.5010  143.4122  157.2842 C.3     1  UNL1        0.1151
     13 N         142.6855  143.2841  158.7672 N.pl3   1  UNL1       -0.2764
     14 C         146.0314  142.1555  155.9778 C.ar    1  UNL1        0.3120
     15 N         145.8762  141.6402  154.5777 N.ar    1  UNL1       -0.0922
     16 N         147.2466  141.3948  154.0194 N.ar    1  UNL1       -0.1018
     17 C         148.2489  141.7584  155.0746 C.ar    1  UNL1        0.3233
     18 O         147.4979  142.2285  156.2849 O.2     1  UNL1       -0.4012
     19 C         149.7403  141.6678  154.9426 C.3     1  UNL1        0.4711
     20 F         151.2317  141.5771  154.8105 F       1  UNL1       -0.1619
     21 F         149.8918  142.0648  156.3811 F       1  UNL1       -0.1619
     22 F         149.5889  141.2707  153.5040 F       1  UNL1       -0.1619
     23 O         138.2243  144.7891  162.4865 O.3     1  UNL1       -0.4674
     24 C         137.5619  143.7382  163.3271 C.3     1  UNL1        0.2344
     25 C         138.3566  142.9894  164.3556 C.ar    1  UNL1        0.0487
     26 C         138.2458  141.4964  164.4481 C.ar    1  UNL1        0.0029
     27 C         139.0406  140.7477  165.4767 C.ar    1  UNL1        0.0183
     28 C         139.9461  141.4920  166.4126 C.ar    1  UNL1        0.1079
     29 C         140.0569  142.9850  166.3200 C.ar    1  UNL1        0.0478
     30 C         139.2622  143.7337  165.2915 C.ar    1  UNL1        0.1409
     31 F         139.3730  145.2268  165.1990 F       1  UNL1       -0.2043
     32 S         140.7408  140.7432  167.4410 S.O2    1  UNL1        0.0105
     33 C         141.5357  139.9945  168.4695 C.3     1  UNL1        0.1816
     34 O         142.0079  141.1014  166.7226 O.2     1  UNL1       -0.1686
     35 O         139.4737  140.3851  168.1594 O.2     1  UNL1       -0.1686
@<TRIPOS>BOND
     1     8     7    1
     2     8     9    1
     3     9    10    1
     4    10    14    1
     5    14    15   ar
     6    15    16   ar
     7    16    17   ar
     8    17    19    1
     9    19    20    1
    10    19    21    1
    11    19    22    1
    12    17    18   ar
    13    10    11    1
    14    11    12    1
    15    12    13    1
    16    13     1    1
    17     1     2   ar
    18     2     3   ar
    19     3     4   ar
    20     4    23    1
    21    23    24    1
    22    24    25    1
    23    25    26   ar
    24    26    27   ar
    25    27    28   ar
    26    28    32    1
    27    32    33    1
    28    32    34    2
    29    32    35    2
    30    28    29   ar
    31    29    30   ar
    32    30    31    1
    33     4     5   ar
    34     5     6   ar
    35    13     8    1
    36     6     1   ar
    37    18    14   ar
    38    30    25   ar
@<TRIPOS>MOLECULE
*****
 35 38 0 0 0
SMALL
GASTEIGER

@<TRIPOS>ATOM
      1 C         141.0080  139.8261  161.1047 C.ar    1  UNL1        0.2204
      2 N         141.5374  140.7626  160.0593 N.ar    1  UNL1       -0.2089
      3 C         141.1779  140.5577  158.6176 C.ar    1  UNL1        0.1402
      4 C         140.2890  139.4162  158.2211 C.ar    1  UNL1        0.1773
      5 C         139.7597  138.4798  159.2665 C.ar    1  UNL1        0.1402
      6 N         140.1192  138.6847  160.7083 N.ar    1  UNL1       -0.2089
      7 C         143.2159  138.2167  162.3436 C.3     1  UNL1        0.0233
      8 C         142.4715  139.2264  163.1660 C.3     1  UNL1        0.0955
      9 C         142.8310  139.4314  164.6077 C.3     1  UNL1        0.1149
     10 N         142.0865  140.4411  165.4300 N.pl3   1  UNL1       -0.2590
     11 C         140.9826  141.2458  164.8106 C.3     1  UNL1        0.1166
     12 C         140.6231  141.0408  163.3689 C.3     1  UNL1        0.1151
     13 N         141.3676  140.0311  162.5465 N.pl3   1  UNL1       -0.2764
     14 C         142.4460  140.6461  166.8719 C.ar    1  UNL1        0.3120
     15 N         142.7041  139.5645  167.8786 N.ar    1  UNL1       -0.0922
     16 N         143.0282  140.2186  169.1890 N.ar    1  UNL1       -0.1018
     17 C         142.9703  141.7046  168.9921 C.ar    1  UNL1        0.3233
     18 O         142.6105  141.9687  167.5601 O.2     1  UNL1       -0.4012
     19 C         143.2272  142.7438  170.0428 C.3     1  UNL1        0.4711
     20 F         143.4840  143.7830  171.0935 F       1  UNL1       -0.1619
     21 F         141.7567  143.0300  170.1192 F       1  UNL1       -0.1619
     22 F         144.6976  142.4576  169.9665 F       1  UNL1       -0.1619
     23 O         139.9295  139.2113  156.7793 O.3     1  UNL1       -0.4674
     24 C         140.9477  138.6649  155.8229 C.3     1  UNL1        0.2344
     25 C         141.4415  137.2569  155.9766 C.ar    1  UNL1        0.0487
     26 C         140.7762  136.1425  155.2246 C.ar    1  UNL1        0.0029
     27 C         141.2701  134.7345  155.3783 C.ar    1  UNL1        0.0183
     28 C         142.4292  134.4409  156.2840 C.ar    1  UNL1        0.1079
     29 C         143.0944  135.5553  157.0360 C.ar    1  UNL1        0.0478
     30 C         142.6006  136.9633  156.8823 C.ar    1  UNL1        0.1409
     31 F         143.2659  138.0777  157.6343 F       1  UNL1       -0.2043
     32 S         142.9230  133.0329  156.4377 S.O2    1  UNL1        0.0105
     33 C         143.4168  131.6249  156.5915 C.3     1  UNL1        0.1816
     34 O         144.1326  133.5368  157.1676 O.2     1  UNL1       -0.1686
     35 O         141.7133  132.5290  155.7079 O.2     1  UNL1       -0.1686
@<TRIPOS>BOND
     1     8     7    1
     2     8     9    1
     3     9    10    1
     4    10    14    1
     5    14    15   ar
     6    15    16   ar
     7    16    17   ar
     8    17    19    1
     9    19    20    1
    10    19    21    1
    11    19    22    1
    12    17    18   ar
    13    10    11    1
    14    11    12    1
    15    12    13    1
    16    13     1    1
    17     1     2   ar
    18     2     3   ar
    19     3     4   ar
    20     4    23    1
    21    23    24    1
    22    24    25    1
    23    25    26   ar
    24    26    27   ar
    25    27    28   ar
    26    28    32    1
    27    32    33    1
    28    32    34    2
    29    32    35    2
    30    28    29   ar
    31    29    30   ar
    32    30    31    1
    33     4     5   ar
    34     5     6   ar
    35    13     8    1
    36     6     1   ar
    37    18    14   ar
    38    30    25   ar
