@<TRIPOS>MOLECULE
*****
 29 31 0 0 0
SMALL
GASTEIGER

@<TRIPOS>ATOM
      1 C         140.0021  140.6982  168.2713 C.ar    1  UNL1        0.0327
      2 C         139.9794  140.6467  166.7724 C.ar    1  UNL1        0.0044
      3 C         138.9548  139.8093  166.0661 C.ar    1  UNL1        0.0193
      4 C         137.9528  139.0233  166.8588 C.ar    1  UNL1        0.1002
      5 N         137.9755  139.0748  168.3577 N.ar    1  UNL1       -0.2296
      6 C         139.0002  139.9123  169.0639 C.ar    1  UNL1        0.1254
      7 N         139.0228  139.9637  170.5629 N.pl3   1  UNL1       -0.3426
      8 H         138.3652  139.4479  171.0832 H       1  UNL1        0.1437
      9 H         139.6953  140.5134  171.0265 H       1  UNL1        0.1437
     10 C         143.0760  143.2106  170.3901 C.ar    1  UNL1        0.2250
     11 C         143.4725  141.9019  169.7736 C.ar    1  UNL1        0.0577
     12 C         142.4479  141.0644  169.0674 C.ar    1  UNL1        0.0064
     13 C         141.0267  141.5357  168.9776 C.ar    1  UNL1        0.0221
     14 C         140.6302  142.8444  169.5940 C.ar    1  UNL1        0.1021
     15 N         141.6548  143.6818  170.3003 N.ar    1  UNL1       -0.2101
     16 C         145.5557  143.8860  170.7704 C.3     1  UNL1        0.2542
     17 O         144.1006  144.0480  171.0964 O.3     1  UNL1       -0.4561
     18 C         138.9321  139.7578  164.5671 C.ar    1  UNL1        0.0016
     19 C         139.0154  138.4373  163.8607 C.ar    1  UNL1        0.0014
     20 C         138.9928  138.3858  162.3617 C.ar    1  UNL1        0.0199
     21 C         138.8868  139.6550  161.5692 C.ar    1  UNL1        0.1222
     22 C         138.8035  140.9756  162.2757 C.ar    1  UNL1        0.0199
     23 C         138.8262  141.0270  163.7746 C.ar    1  UNL1        0.0014
     24 S         138.8642  139.6035  160.0703 S.O2    1  UNL1        0.0634
     25 O         139.3730  138.1931  160.1110 O.2     1  UNL1       -0.1528
     26 O         138.3554  141.0140  160.0296 O.2     1  UNL1       -0.1528
     27 N         138.8415  139.5521  158.5714 N.3     1  UNL1       -0.1526
     28 C         138.0465  140.5622  157.7982 C.3     1  UNL1        0.1150
     29 C         139.6139  138.4906  157.8455 C.3     1  UNL1        0.1150
@<TRIPOS>BOND
     1    16    17    1
     2    17    10    1
     3    10    11   ar
     4    11    12   ar
     5    12    13   ar
     6    13     1    1
     7     1     2   ar
     8     2     3   ar
     9     3    18    1
    10    18    19   ar
    11    19    20   ar
    12    20    21   ar
    13    21    24    1
    14    24    25    2
    15    24    26    2
    16    24    27    1
    17    27    28    1
    18    27    29    1
    19    21    22   ar
    20    22    23   ar
    21     3     4   ar
    22     4     5   ar
    23     5     6   ar
    24     6     7    1
    25    13    14   ar
    26    14    15   ar
    27    15    10   ar
    28     6     1   ar
    29    23    18   ar
    30     7     8    1
    31     7     9    1
@<TRIPOS>MOLECULE
*****
 29 31 0 0 0
SMALL
GASTEIGER

@<TRIPOS>ATOM
      1 C         139.2879  146.4024  156.2080 C.ar    1  UNL1        0.0327
      2 C         140.1766  146.0469  157.3629 C.ar    1  UNL1        0.0044
      3 C         140.2152  144.6370  157.8733 C.ar    1  UNL1        0.0193
      4 C         139.3651  143.5825  157.2289 C.ar    1  UNL1        0.1002
      5 N         138.4763  143.9379  156.0741 N.ar    1  UNL1       -0.2296
      6 C         138.4377  145.3479  155.5636 C.ar    1  UNL1        0.1254
      7 N         137.5490  145.7033  154.4087 N.pl3   1  UNL1       -0.3426
      8 H         136.9910  145.0112  153.9857 H       1  UNL1        0.1437
      9 H         137.5236  146.6287  154.0736 H       1  UNL1        0.1437
     10 C         139.1721  150.6322  154.6766 C.ar    1  UNL1        0.2250
     11 C         138.4463  150.2713  155.9387 C.ar    1  UNL1        0.0577
     12 C         138.4849  148.8614  156.4492 C.ar    1  UNL1        0.0064
     13 C         139.2493  147.8123  155.6975 C.ar    1  UNL1        0.0221
     14 C         139.9751  148.1731  154.4355 C.ar    1  UNL1        0.1021
     15 N         139.9365  149.5831  153.9250 N.ar    1  UNL1       -0.2101
     16 C         138.4573  153.1127  154.9703 C.3     1  UNL1        0.2542
     17 O         139.1335  152.0421  154.1661 O.3     1  UNL1       -0.4561
     18 C         141.1040  144.2815  159.0283 C.ar    1  UNL1        0.0016
     19 C         142.2293  143.3084  158.8369 C.ar    1  UNL1        0.0014
     20 C         143.1181  142.9529  159.9918 C.ar    1  UNL1        0.0199
     21 C         142.8815  143.5707  161.3381 C.ar    1  UNL1        0.1222
     22 C         141.7562  144.5439  161.5294 C.ar    1  UNL1        0.0199
     23 C         140.8674  144.8993  160.3745 C.ar    1  UNL1        0.0014
     24 S         143.7703  143.2153  162.4930 S.O2    1  UNL1        0.0634
     25 O         144.3538  144.5969  162.4690 O.2     1  UNL1       -0.1528
     26 O         143.1867  141.8337  162.5169 O.2     1  UNL1       -0.1528
     27 N         144.6590  142.8599  163.6479 N.3     1  UNL1       -0.1526
     28 C         145.7272  141.8203  163.4801 C.3     1  UNL1        0.1150
     29 C         144.4795  143.5442  164.9707 C.3     1  UNL1        0.1150
@<TRIPOS>BOND
     1    16    17    1
     2    17    10    1
     3    10    11   ar
     4    11    12   ar
     5    12    13   ar
     6    13     1    1
     7     1     2   ar
     8     2     3   ar
     9     3    18    1
    10    18    19   ar
    11    19    20   ar
    12    20    21   ar
    13    21    24    1
    14    24    25    2
    15    24    26    2
    16    24    27    1
    17    27    28    1
    18    27    29    1
    19    21    22   ar
    20    22    23   ar
    21     3     4   ar
    22     4     5   ar
    23     5     6   ar
    24     6     7    1
    25    13    14   ar
    26    14    15   ar
    27    15    10   ar
    28     6     1   ar
    29    23    18   ar
    30     7     8    1
    31     7     9    1
@<TRIPOS>MOLECULE
*****
 29 31 0 0 0
SMALL
GASTEIGER

@<TRIPOS>ATOM
      1 C         140.2718  143.2765  164.3824 C.ar    1  UNL1        0.0327
      2 C         141.2248  142.8962  163.2883 C.ar    1  UNL1        0.0044
      3 C         141.3686  143.7737  162.0803 C.ar    1  UNL1        0.0193
      4 C         140.5594  145.0315  161.9664 C.ar    1  UNL1        0.1002
      5 N         139.6064  145.4119  163.0605 N.ar    1  UNL1       -0.2296
      6 C         139.4626  144.5343  164.2685 C.ar    1  UNL1        0.1254
      7 N         138.5096  144.9147  165.3627 N.pl3   1  UNL1       -0.3426
      8 H         137.9785  145.7403  165.2879 H       1  UNL1        0.1437
      9 H         138.4151  144.3388  166.1555 H       1  UNL1        0.1437
     10 C         139.8403  140.6439  168.0064 C.ar    1  UNL1        0.2250
     11 C         140.5620  141.9545  168.1131 C.ar    1  UNL1        0.0577
     12 C         140.7058  142.8320  166.9051 C.ar    1  UNL1        0.0064
     13 C         140.1280  142.3989  165.5904 C.ar    1  UNL1        0.0221
     14 C         139.4062  141.0883  165.4837 C.ar    1  UNL1        0.1021
     15 N         139.2624  140.2108  166.6917 N.ar    1  UNL1       -0.2101
     16 C         140.7301  139.8100  170.3005 C.3     1  UNL1        0.2542
     17 O         139.6965  139.7663  169.2144 O.3     1  UNL1       -0.4561
     18 C         142.3217  143.3933  160.9862 C.ar    1  UNL1        0.0016
     19 C         143.6114  142.7045  161.3208 C.ar    1  UNL1        0.0014
     20 C         144.5645  142.3241  160.2267 C.ar    1  UNL1        0.0199
     21 C         144.2277  142.6326  158.7979 C.ar    1  UNL1        0.1222
     22 C         142.9379  143.3214  158.4633 C.ar    1  UNL1        0.0199
     23 C         141.9849  143.7018  159.5574 C.ar    1  UNL1        0.0014
     24 S         145.1807  142.2523  157.7038 S.O2    1  UNL1        0.0634
     25 O         146.2912  142.9553  158.4266 O.2     1  UNL1       -0.1528
     26 O         144.0702  141.5492  156.9809 O.2     1  UNL1       -0.1528
     27 N         146.1337  141.8719  156.6097 N.3     1  UNL1       -0.1526
     28 C         145.7823  140.7651  155.6602 C.3     1  UNL1        0.1150
     29 C         147.4381  142.5984  156.4650 C.3     1  UNL1        0.1150
@<TRIPOS>BOND
     1    16    17    1
     2    17    10    1
     3    10    11   ar
     4    11    12   ar
     5    12    13   ar
     6    13     1    1
     7     1     2   ar
     8     2     3   ar
     9     3    18    1
    10    18    19   ar
    11    19    20   ar
    12    20    21   ar
    13    21    24    1
    14    24    25    2
    15    24    26    2
    16    24    27    1
    17    27    28    1
    18    27    29    1
    19    21    22   ar
    20    22    23   ar
    21     3     4   ar
    22     4     5   ar
    23     5     6   ar
    24     6     7    1
    25    13    14   ar
    26    14    15   ar
    27    15    10   ar
    28     6     1   ar
    29    23    18   ar
    30     7     8    1
    31     7     9    1
@<TRIPOS>MOLECULE
*****
 29 31 0 0 0
SMALL
GASTEIGER

@<TRIPOS>ATOM
      1 C         138.7875  141.0087  163.6491 C.ar    1  UNL1        0.0327
      2 C         139.4603  140.2003  162.5797 C.ar    1  UNL1        0.0044
      3 C         139.2488  140.5438  161.1350 C.ar    1  UNL1        0.0193
      4 C         138.3645  141.6958  160.7597 C.ar    1  UNL1        0.1002
      5 N         137.6916  142.5042  161.8291 N.ar    1  UNL1       -0.2296
      6 C         137.9031  142.1606  163.2738 C.ar    1  UNL1        0.1254
      7 N         137.2302  142.9691  164.3433 N.pl3   1  UNL1       -0.3426
      8 H         136.6498  143.7252  164.0969 H       1  UNL1        0.1437
      9 H         137.3690  142.7436  165.2915 H       1  UNL1        0.1437
     10 C         139.4220  139.9780  167.9833 C.ar    1  UNL1        0.2250
     11 C         138.4701  139.1703  167.1519 C.ar    1  UNL1        0.0577
     12 C         138.2586  139.5138  165.7071 C.ar    1  UNL1        0.0064
     13 C         138.9990  140.6651  165.0938 C.ar    1  UNL1        0.0221
     14 C         139.9509  141.4729  165.9253 C.ar    1  UNL1        0.1021
     15 N         140.1624  141.1294  167.3700 N.ar    1  UNL1       -0.2101
     16 C         140.6006  140.4295  170.2542 C.3     1  UNL1        0.2542
     17 O         139.6335  139.6345  169.4280 O.3     1  UNL1       -0.4561
     18 C         139.9217  139.7354  160.0655 C.ar    1  UNL1        0.0016
     19 C         141.3545  139.3220  160.2275 C.ar    1  UNL1        0.0014
     20 C         142.0274  138.5135  159.1581 C.ar    1  UNL1        0.0199
     21 C         141.2675  138.1185  157.9266 C.ar    1  UNL1        0.1222
     22 C         139.8346  138.5319  157.7646 C.ar    1  UNL1        0.0199
     23 C         139.1618  139.3403  158.8341 C.ar    1  UNL1        0.0014
     24 S         141.9403  137.3101  156.8572 S.O2    1  UNL1        0.0634
     25 O         143.2784  137.7882  157.3376 O.2     1  UNL1       -0.1528
     26 O         140.6022  136.8319  156.3768 O.2     1  UNL1       -0.1528
     27 N         142.6131  136.5016  155.7878 N.3     1  UNL1       -0.1526
     28 C         141.7934  135.6527  154.8618 C.3     1  UNL1        0.1150
     29 C         144.1057  136.5421  155.6443 C.3     1  UNL1        0.1150
@<TRIPOS>BOND
     1    16    17    1
     2    17    10    1
     3    10    11   ar
     4    11    12   ar
     5    12    13   ar
     6    13     1    1
     7     1     2   ar
     8     2     3   ar
     9     3    18    1
    10    18    19   ar
    11    19    20   ar
    12    20    21   ar
    13    21    24    1
    14    24    25    2
    15    24    26    2
    16    24    27    1
    17    27    28    1
    18    27    29    1
    19    21    22   ar
    20    22    23   ar
    21     3     4   ar
    22     4     5   ar
    23     5     6   ar
    24     6     7    1
    25    13    14   ar
    26    14    15   ar
    27    15    10   ar
    28     6     1   ar
    29    23    18   ar
    30     7     8    1
    31     7     9    1
@<TRIPOS>MOLECULE
*****
 29 31 0 0 0
SMALL
GASTEIGER

@<TRIPOS>ATOM
      1 C         140.3256  139.3647  165.4484 C.ar    1  UNL1        0.0327
      2 C         140.9706  139.2698  164.0975 C.ar    1  UNL1        0.0044
      3 C         140.3556  138.4125  163.0313 C.ar    1  UNL1        0.0193
      4 C         139.0956  137.6501  163.3159 C.ar    1  UNL1        0.1002
      5 N         138.4506  137.7450  164.6668 N.ar    1  UNL1       -0.2296
      6 C         139.0656  138.6023  165.7330 C.ar    1  UNL1        0.1254
      7 N         138.4205  138.6971  167.0840 N.pl3   1  UNL1       -0.3426
      8 H         137.5935  138.1967  167.2708 H       1  UNL1        0.1437
      9 H         138.8242  139.2598  167.7838 H       1  UNL1        0.1437
     10 C         142.1707  141.9365  168.6470 C.ar    1  UNL1        0.2250
     11 C         141.0265  142.4603  167.8308 C.ar    1  UNL1        0.0577
     12 C         140.4114  141.6030  166.7645 C.ar    1  UNL1        0.0064
     13 C         140.9406  140.2220  166.5146 C.ar    1  UNL1        0.0221
     14 C         142.0848  139.6982  167.3309 C.ar    1  UNL1        0.1021
     15 N         142.6999  140.5554  168.3971 N.ar    1  UNL1       -0.2101
     16 C         144.2324  142.6234  170.0709 C.3     1  UNL1        0.2542
     17 O         142.7857  142.7938  169.7133 O.3     1  UNL1       -0.4561
     18 C         141.0006  138.3177  161.6803 C.ar    1  UNL1        0.0016
     19 C         140.2173  138.6648  160.4491 C.ar    1  UNL1        0.0014
     20 C         140.8624  138.5700  159.0982 C.ar    1  UNL1        0.0199
     21 C         142.2908  138.1280  158.9785 C.ar    1  UNL1        0.1222
     22 C         143.0741  137.7808  160.2098 C.ar    1  UNL1        0.0199
     23 C         142.4290  137.8757  161.5606 C.ar    1  UNL1        0.0014
     24 S         142.9358  138.0331  157.6277 S.O2    1  UNL1        0.0634
     25 O         142.0895  136.8369  157.3075 O.2     1  UNL1       -0.1528
     26 O         143.7822  139.2294  157.9478 O.2     1  UNL1       -0.1528
     27 N         143.5809  137.9383  156.2768 N.3     1  UNL1       -0.1526
     28 C         143.9107  136.5953  155.6958 C.3     1  UNL1        0.1150
     29 C         143.8962  139.1864  155.5069 C.3     1  UNL1        0.1150
@<TRIPOS>BOND
     1    16    17    1
     2    17    10    1
     3    10    11   ar
     4    11    12   ar
     5    12    13   ar
     6    13     1    1
     7     1     2   ar
     8     2     3   ar
     9     3    18    1
    10    18    19   ar
    11    19    20   ar
    12    20    21   ar
    13    21    24    1
    14    24    25    2
    15    24    26    2
    16    24    27    1
    17    27    28    1
    18    27    29    1
    19    21    22   ar
    20    22    23   ar
    21     3     4   ar
    22     4     5   ar
    23     5     6   ar
    24     6     7    1
    25    13    14   ar
    26    14    15   ar
    27    15    10   ar
    28     6     1   ar
    29    23    18   ar
    30     7     8    1
    31     7     9    1
@<TRIPOS>MOLECULE
*****
 29 31 0 0 0
SMALL
GASTEIGER

@<TRIPOS>ATOM
      1 C         140.1823  139.9653  160.2712 C.ar    1  UNL1        0.0327
      2 C         140.3606  140.1840  161.7444 C.ar    1  UNL1        0.0044
      3 C         139.1673  140.1795  162.6532 C.ar    1  UNL1        0.0193
      4 C         137.7956  139.9564  162.0888 C.ar    1  UNL1        0.1002
      5 N         137.6172  139.7377  160.6156 N.ar    1  UNL1       -0.2296
      6 C         138.8105  139.7422  159.7068 C.ar    1  UNL1        0.1254
      7 N         138.6321  139.5235  158.2336 N.pl3   1  UNL1       -0.3426
      8 H         137.7318  139.3770  157.8631 H       1  UNL1        0.1437
      9 H         139.4153  139.5264  157.6371 H       1  UNL1        0.1437
     10 C         143.7623  139.9787  157.5448 C.ar    1  UNL1        0.2250
     11 C         143.0235  141.2550  157.8188 C.ar    1  UNL1        0.0577
     12 C         141.8301  141.2505  158.7276 C.ar    1  UNL1        0.0064
     13 C         141.3756  139.9697  159.3624 C.ar    1  UNL1        0.0221
     14 C         142.1144  138.6934  159.0884 C.ar    1  UNL1        0.1021
     15 N         143.3077  138.6979  158.1795 N.ar    1  UNL1       -0.2101
     16 C         145.6768  141.2671  156.3514 C.3     1  UNL1        0.2542
     17 O         144.9556  139.9831  156.6360 O.3     1  UNL1       -0.4561
     18 C         139.3457  140.3982  164.1264 C.ar    1  UNL1        0.0016
     19 C         140.0864  141.6051  164.6212 C.ar    1  UNL1        0.0014
     20 C         140.2649  141.8238  166.0945 C.ar    1  UNL1        0.0199
     21 C         139.7026  140.8356  167.0729 C.ar    1  UNL1        0.1222
     22 C         138.9618  139.6287  166.5780 C.ar    1  UNL1        0.0199
     23 C         138.7834  139.4100  165.1049 C.ar    1  UNL1        0.0014
     24 S         139.8809  141.0542  168.5461 S.O2    1  UNL1        0.0634
     25 O         140.4319  142.4230  168.2762 O.2     1  UNL1       -0.1528
     26 O         139.3300  139.6855  168.8159 O.2     1  UNL1       -0.1528
     27 N         140.0593  141.2729  170.0193 N.3     1  UNL1       -0.1526
     28 C         140.3579  140.1106  170.9193 C.3     1  UNL1        0.1150
     29 C         139.9392  142.6538  170.5925 C.3     1  UNL1        0.1150
@<TRIPOS>BOND
     1    16    17    1
     2    17    10    1
     3    10    11   ar
     4    11    12   ar
     5    12    13   ar
     6    13     1    1
     7     1     2   ar
     8     2     3   ar
     9     3    18    1
    10    18    19   ar
    11    19    20   ar
    12    20    21   ar
    13    21    24    1
    14    24    25    2
    15    24    26    2
    16    24    27    1
    17    27    28    1
    18    27    29    1
    19    21    22   ar
    20    22    23   ar
    21     3     4   ar
    22     4     5   ar
    23     5     6   ar
    24     6     7    1
    25    13    14   ar
    26    14    15   ar
    27    15    10   ar
    28     6     1   ar
    29    23    18   ar
    30     7     8    1
    31     7     9    1
@<TRIPOS>MOLECULE
*****
 29 31 0 0 0
SMALL
GASTEIGER

@<TRIPOS>ATOM
      1 C         140.3714  138.9800  163.4004 C.ar    1  UNL1        0.0327
      2 C         140.1388  140.0720  162.3988 C.ar    1  UNL1        0.0044
      3 C         140.5845  139.8937  160.9777 C.ar    1  UNL1        0.0193
      4 C         141.2628  138.6234  160.5582 C.ar    1  UNL1        0.1002
      5 N         141.4955  137.5313  161.5598 N.ar    1  UNL1       -0.2296
      6 C         141.0497  137.7096  162.9809 C.ar    1  UNL1        0.1254
      7 N         141.2824  136.6175  163.9825 N.pl3   1  UNL1       -0.3426
      8 H         141.7276  135.7837  163.7072 H       1  UNL1        0.1437
      9 H         140.9899  136.7345  164.9153 H       1  UNL1        0.1437
     10 C         139.0343  139.5148  167.6638 C.ar    1  UNL1        0.2250
     11 C         138.1229  138.8601  166.6685 C.ar    1  UNL1        0.0577
     12 C         138.5687  138.6818  165.2473 C.ar    1  UNL1        0.0064
     13 C         139.9257  139.1583  164.8215 C.ar    1  UNL1        0.0221
     14 C         140.8370  139.8130  165.8169 C.ar    1  UNL1        0.1021
     15 N         140.3913  139.9913  167.2380 N.ar    1  UNL1       -0.2101
     16 C         139.2735  140.6957  169.9656 C.3     1  UNL1        0.2542
     17 O         138.5886  139.6931  169.0849 O.3     1  UNL1       -0.4561
     18 C         140.3518  140.9859  159.9761 C.ar    1  UNL1        0.0016
     19 C         139.0439  141.7200  159.9572 C.ar    1  UNL1        0.0014
     20 C         138.8113  142.8122  158.9556 C.ar    1  UNL1        0.0199
     21 C         139.8866  143.1701  157.9729 C.ar    1  UNL1        0.1222
     22 C         141.1945  142.4359  157.9919 C.ar    1  UNL1        0.0199
     23 C         141.4271  141.3438  158.9934 C.ar    1  UNL1        0.0014
     24 S         139.6540  144.2622  156.9713 S.O2    1  UNL1        0.0634
     25 O         139.2021  143.2444  155.9665 O.2     1  UNL1       -0.1528
     26 O         140.1059  145.2800  157.9762 O.2     1  UNL1       -0.1528
     27 N         139.4214  145.3543  155.9697 N.3     1  UNL1       -0.1526
     28 C         138.1613  145.3699  155.1562 C.3     1  UNL1        0.1150
     29 C         140.4489  146.4308  155.7817 C.3     1  UNL1        0.1150
@<TRIPOS>BOND
     1    16    17    1
     2    17    10    1
     3    10    11   ar
     4    11    12   ar
     5    12    13   ar
     6    13     1    1
     7     1     2   ar
     8     2     3   ar
     9     3    18    1
    10    18    19   ar
    11    19    20   ar
    12    20    21   ar
    13    21    24    1
    14    24    25    2
    15    24    26    2
    16    24    27    1
    17    27    28    1
    18    27    29    1
    19    21    22   ar
    20    22    23   ar
    21     3     4   ar
    22     4     5   ar
    23     5     6   ar
    24     6     7    1
    25    13    14   ar
    26    14    15   ar
    27    15    10   ar
    28     6     1   ar
    29    23    18   ar
    30     7     8    1
    31     7     9    1
@<TRIPOS>MOLECULE
*****
 29 31 0 0 0
SMALL
GASTEIGER

@<TRIPOS>ATOM
      1 C         143.5053  141.0901  163.3349 C.ar    1  UNL1        0.0327
      2 C         142.3365  141.1242  162.3954 C.ar    1  UNL1        0.0044
      3 C         142.4950  141.7054  161.0217 C.ar    1  UNL1        0.0193
      4 C         143.8224  142.2526  160.5875 C.ar    1  UNL1        0.1002
      5 N         144.9912  142.2186  161.5269 N.ar    1  UNL1       -0.2296
      6 C         144.8327  141.6373  162.9006 C.ar    1  UNL1        0.1254
      7 N         146.0016  141.6033  163.8401 N.pl3   1  UNL1       -0.3426
      8 H         146.8728  141.9624  163.5551 H       1  UNL1        0.1437
      9 H         145.8976  141.2218  164.7417 H       1  UNL1        0.1437
     10 C         143.0297  139.3464  167.4559 C.ar    1  UNL1        0.2250
     11 C         143.4897  138.4781  166.3226 C.ar    1  UNL1        0.0577
     12 C         143.6482  139.0593  164.9490 C.ar    1  UNL1        0.0064
     13 C         143.3468  140.5089  164.7086 C.ar    1  UNL1        0.0221
     14 C         142.8868  141.3772  165.8418 C.ar    1  UNL1        0.1021
     15 N         142.7282  140.7959  167.2155 N.ar    1  UNL1       -0.2101
     16 C         142.5160  139.6547  169.9840 C.3     1  UNL1        0.2542
     17 O         142.8711  138.7651  168.8296 O.3     1  UNL1       -0.4561
     18 C         141.3261  141.7395  160.0823 C.ar    1  UNL1        0.0016
     19 C         140.6185  140.4677  159.7190 C.ar    1  UNL1        0.0014
     20 C         139.4496  140.5017  158.7796 C.ar    1  UNL1        0.0199
     21 C         138.9883  141.8076  158.2034 C.ar    1  UNL1        0.1222
     22 C         139.6959  143.0794  158.5666 C.ar    1  UNL1        0.0199
     23 C         140.8648  143.0453  159.5061 C.ar    1  UNL1        0.0014
     24 S         137.8194  141.8417  157.2639 S.O2    1  UNL1        0.0634
     25 O         137.4903  140.4227  157.6220 O.2     1  UNL1       -0.1528
     26 O         138.1486  143.2606  156.9059 O.2     1  UNL1       -0.1528
     27 N         136.6506  141.8757  156.3245 N.3     1  UNL1       -0.1526
     28 C         135.6255  140.7813  156.3627 C.3     1  UNL1        0.1150
     29 C         136.5068  143.0043  155.3468 C.3     1  UNL1        0.1150
@<TRIPOS>BOND
     1    16    17    1
     2    17    10    1
     3    10    11   ar
     4    11    12   ar
     5    12    13   ar
     6    13     1    1
     7     1     2   ar
     8     2     3   ar
     9     3    18    1
    10    18    19   ar
    11    19    20   ar
    12    20    21   ar
    13    21    24    1
    14    24    25    2
    15    24    26    2
    16    24    27    1
    17    27    28    1
    18    27    29    1
    19    21    22   ar
    20    22    23   ar
    21     3     4   ar
    22     4     5   ar
    23     5     6   ar
    24     6     7    1
    25    13    14   ar
    26    14    15   ar
    27    15    10   ar
    28     6     1   ar
    29    23    18   ar
    30     7     8    1
    31     7     9    1
@<TRIPOS>MOLECULE
*****
 29 31 0 0 0
SMALL
GASTEIGER

@<TRIPOS>ATOM
      1 C         139.7680  139.5121  164.7844 C.ar    1  UNL1        0.0327
      2 C         139.9995  140.5911  163.7684 C.ar    1  UNL1        0.0044
      3 C         139.4301  140.4555  162.3873 C.ar    1  UNL1        0.0193
      4 C         138.6293  139.2409  162.0221 C.ar    1  UNL1        0.1002
      5 N         138.3979  138.1619  163.0381 N.ar    1  UNL1       -0.2296
      6 C         138.9672  138.2975  164.4192 C.ar    1  UNL1        0.1254
      7 N         138.7357  137.2184  165.4351 N.pl3   1  UNL1       -0.3426
      8 H         138.2101  136.4212  165.1954 H       1  UNL1        0.1437
      9 H         139.1094  137.3074  166.3416 H       1  UNL1        0.1437
     10 C         141.4761  139.9190  168.9277 C.ar    1  UNL1        0.2250
     11 C         140.0290  140.2259  168.6795 C.ar    1  UNL1        0.0577
     12 C         139.4596  140.0903  167.2984 C.ar    1  UNL1        0.0064
     13 C         140.3374  139.6477  166.1655 C.ar    1  UNL1        0.0221
     14 C         141.7845  139.3408  166.4136 C.ar    1  UNL1        0.1021
     15 N         142.3538  139.4764  167.7947 N.ar    1  UNL1       -0.2101
     16 C         141.6435  141.2109  171.1755 C.3     1  UNL1        0.2542
     17 O         142.0454  140.0546  170.3088 O.3     1  UNL1       -0.4561
     18 C         139.6616  141.5346  161.3714 C.ar    1  UNL1        0.0016
     19 C         140.8518  142.4390  161.4958 C.ar    1  UNL1        0.0014
     20 C         141.0833  143.5181  160.4799 C.ar    1  UNL1        0.0199
     21 C         140.1246  143.6927  159.3395 C.ar    1  UNL1        0.1222
     22 C         138.9344  142.7882  159.2151 C.ar    1  UNL1        0.0199
     23 C         138.7029  141.7092  160.2310 C.ar    1  UNL1        0.0014
     24 S         140.3560  144.7717  158.3236 S.O2    1  UNL1        0.0634
     25 O         139.5142  144.0212  157.3347 O.2     1  UNL1       -0.1528
     26 O         141.1979  145.5222  159.3125 O.2     1  UNL1       -0.1528
     27 N         140.5875  145.8507  157.3077 N.3     1  UNL1       -0.1526
     28 C         139.4986  146.8346  156.9972 C.3     1  UNL1        0.1150
     29 C         141.9078  145.9458  156.6021 C.3     1  UNL1        0.1150
@<TRIPOS>BOND
     1    16    17    1
     2    17    10    1
     3    10    11   ar
     4    11    12   ar
     5    12    13   ar
     6    13     1    1
     7     1     2   ar
     8     2     3   ar
     9     3    18    1
    10    18    19   ar
    11    19    20   ar
    12    20    21   ar
    13    21    24    1
    14    24    25    2
    15    24    26    2
    16    24    27    1
    17    27    28    1
    18    27    29    1
    19    21    22   ar
    20    22    23   ar
    21     3     4   ar
    22     4     5   ar
    23     5     6   ar
    24     6     7    1
    25    13    14   ar
    26    14    15   ar
    27    15    10   ar
    28     6     1   ar
    29    23    18   ar
    30     7     8    1
    31     7     9    1
