@<TRIPOS>MOLECULE
*****
 34 37 0 0 0
SMALL
GASTEIGER

@<TRIPOS>ATOM
      1 N         140.2694  138.5164  161.5266 N.am    1  UNL1       -0.3005
      2 C         139.0526  138.1559  162.3263 C.2     1  UNL1        0.2271
      3 O         137.6891  138.5354  161.8296 O.2     1  UNL1       -0.2747
      4 H         141.1644  138.2673  161.8527 H       1  UNL1        0.1497
      5 C         140.0623  138.4991  158.9369 C.3     1  UNL1        0.0278
      6 C         140.1227  139.2565  160.2302 C.3     1  UNL1        0.1119
      7 C         140.0363  140.7541  160.2271 C.ar    1  UNL1        0.0770
      8 C         141.2843  141.5776  160.3465 C.ar    1  UNL1        0.0195
      9 C         141.1978  143.0750  160.3433 C.ar    1  UNL1        0.0398
     10 C         139.8634  143.7490  160.2208 C.ar    1  UNL1        0.1580
     11 C         138.6154  142.9256  160.1015 C.ar    1  UNL1        0.1353
     12 N         138.7018  141.4281  160.1046 N.ar    1  UNL1       -0.2433
     13 O         139.7771  145.2465  160.2177 O.3     1  UNL1       -0.4650
     14 C         139.8686  146.0059  161.5081 C.3     1  UNL1        0.3082
     15 C         139.7140  145.2856  162.8148 C.3     1  UNL1        0.4380
     16 F         139.5593  144.5654  164.1214 F       1  UNL1       -0.1663
     17 F         138.2264  145.2590  162.6240 F       1  UNL1       -0.1663
     18 F         141.2016  145.3122  163.0054 F       1  UNL1       -0.1663
     19 C         139.1994  137.4158  163.6227 C.3     1  UNL1        0.1113
     20 C         139.4057  138.1744  164.9002 C.ar    1  UNL1       -0.0131
     21 C         140.7592  138.7287  165.2331 C.ar    1  UNL1       -0.0038
     22 C         140.9656  139.4873  166.5106 C.ar    1  UNL1       -0.0002
     23 C         139.8183  139.6916  167.4552 C.ar    1  UNL1        0.0030
     24 C         138.4649  139.1374  167.1223 C.ar    1  UNL1       -0.0002
     25 C         138.2586  138.3788  165.8448 C.ar    1  UNL1       -0.0038
     26 C         140.0247  140.4503  168.7327 C.ar    1  UNL1        0.0403
     27 C         139.0531  140.5392  169.8720 C.ar    1  UNL1        0.1237
     28 N         139.6668  141.3970  170.9386 N.ar    1  UNL1       -0.1464
     29 N         141.0177  141.8382  170.4584 N.ar    1  UNL1       -0.1479
     30 N         142.0749  142.6972  171.0864 N.ar    1  UNL1       -0.1464
     31 C         143.3533  142.9710  170.3511 C.ar    1  UNL1        0.1222
     32 C         143.5744  142.3858  168.9878 C.ar    1  UNL1        0.0241
     33 C         142.5172  141.5269  168.3597 C.ar    1  UNL1        0.0226
     34 C         141.2388  141.2531  169.0950 C.ar    1  UNL1        0.1044
@<TRIPOS>BOND
     1     6     5    1
     2     6     1    1
     3     1     2   am
     4     2     3    2
     5     2    19    1
     6    19    20    1
     7    20    21   ar
     8    21    22   ar
     9    22    23   ar
    10    23    26    1
    11    26    27   ar
    12    27    28   ar
    13    28    29   ar
    14    29    30   ar
    15    30    31   ar
    16    31    32   ar
    17    32    33   ar
    18    33    34   ar
    19    23    24   ar
    20    24    25   ar
    21     6     7    1
    22     7     8   ar
    23     8     9   ar
    24     9    10   ar
    25    10    13    1
    26    13    14    1
    27    14    15    1
    28    15    16    1
    29    15    17    1
    30    15    18    1
    31    10    11   ar
    32    11    12   ar
    33    25    20   ar
    34    12     7   ar
    35    34    26   ar
    36    34    29   ar
    37     1     4    1
@<TRIPOS>MOLECULE
*****
 34 37 0 0 0
SMALL
GASTEIGER

@<TRIPOS>ATOM
      1 N         141.4742  145.6174  159.9242 N.am    1  UNL1       -0.3005
      2 C         140.3890  145.2305  160.8848 C.2     1  UNL1        0.2271
      3 O         139.2692  144.3409  160.4326 O.2     1  UNL1       -0.2747
      4 H         142.2092  146.2014  160.2210 H       1  UNL1        0.1497
      5 C         140.3329  145.5377  157.5916 C.3     1  UNL1        0.0278
      6 C         141.4396  145.1146  158.5115 C.3     1  UNL1        0.1119
      7 C         142.5118  144.1885  158.0185 C.ar    1  UNL1        0.0770
      8 C         142.5921  143.8423  156.5612 C.ar    1  UNL1        0.0195
      9 C         143.6642  142.9163  156.0683 C.ar    1  UNL1        0.0398
     10 C         144.6561  142.3365  157.0326 C.ar    1  UNL1        0.1580
     11 C         144.5759  142.6827  158.4899 C.ar    1  UNL1        0.1353
     12 N         143.5037  143.6087  158.9828 N.ar    1  UNL1       -0.2433
     13 O         145.7282  141.4105  156.5396 O.3     1  UNL1       -0.4650
     14 C         146.6879  141.8696  155.4820 C.3     1  UNL1        0.3082
     15 C         148.1556  141.9437  155.7823 C.3     1  UNL1        0.4380
     16 F         149.6234  142.0177  156.0824 F       1  UNL1       -0.1663
     17 F         148.4604  141.3536  154.4372 F       1  UNL1       -0.1663
     18 F         147.8507  142.5337  157.1272 F       1  UNL1       -0.1663
     19 C         140.4236  145.7334  162.2975 C.3     1  UNL1        0.1113
     20 C         140.7533  144.7945  163.4200 C.ar    1  UNL1       -0.0131
     21 C         142.1634  144.3202  163.6113 C.ar    1  UNL1       -0.0038
     22 C         142.4931  143.3813  164.7337 C.ar    1  UNL1       -0.0002
     23 C         141.4127  142.9168  165.6649 C.ar    1  UNL1        0.0030
     24 C         140.0026  143.3911  165.4734 C.ar    1  UNL1       -0.0002
     25 C         139.6729  144.3299  164.3510 C.ar    1  UNL1       -0.0038
     26 C         141.7424  141.9779  166.7873 C.ar    1  UNL1        0.0403
     27 C         142.5614  140.7260  166.6778 C.ar    1  UNL1        0.1237
     28 N         142.6361  140.1005  168.0391 N.ar    1  UNL1       -0.1464
     29 N         141.8633  140.9658  168.9899 N.ar    1  UNL1       -0.1479
     30 N         141.5911  140.8471  170.4602 N.ar    1  UNL1       -0.1464
     31 C         140.7666  141.8886  171.1568 C.ar    1  UNL1        0.1222
     32 C         140.2143  143.0489  170.3831 C.ar    1  UNL1        0.0241
     33 C         140.4864  143.1677  168.9128 C.ar    1  UNL1        0.0226
     34 C         141.3109  142.1261  168.2162 C.ar    1  UNL1        0.1044
@<TRIPOS>BOND
     1     6     5    1
     2     6     1    1
     3     1     2   am
     4     2     3    2
     5     2    19    1
     6    19    20    1
     7    20    21   ar
     8    21    22   ar
     9    22    23   ar
    10    23    26    1
    11    26    27   ar
    12    27    28   ar
    13    28    29   ar
    14    29    30   ar
    15    30    31   ar
    16    31    32   ar
    17    32    33   ar
    18    33    34   ar
    19    23    24   ar
    20    24    25   ar
    21     6     7    1
    22     7     8   ar
    23     8     9   ar
    24     9    10   ar
    25    10    13    1
    26    13    14    1
    27    14    15    1
    28    15    16    1
    29    15    17    1
    30    15    18    1
    31    10    11   ar
    32    11    12   ar
    33    25    20   ar
    34    12     7   ar
    35    34    26   ar
    36    34    29   ar
    37     1     4    1
@<TRIPOS>MOLECULE
*****
 34 37 0 0 0
SMALL
GASTEIGER

@<TRIPOS>ATOM
      1 N         140.0943  138.8039  160.7740 N.am    1  UNL1       -0.3005
      2 C         140.8386  138.0956  161.8670 C.2     1  UNL1        0.2271
      3 O         142.3337  137.9892  161.8093 O.2     1  UNL1       -0.2747
      4 H         139.1130  138.8737  160.8119 H       1  UNL1        0.1497
      5 C         141.2799  140.8402  159.6796 C.3     1  UNL1        0.0278
      6 C         140.8452  139.4056  159.6233 C.3     1  UNL1        0.1119
      7 C         141.1613  138.5729  158.4164 C.ar    1  UNL1        0.0770
      8 C         142.5806  138.4357  157.9506 C.ar    1  UNL1        0.0195
      9 C         142.8966  137.6030  156.7437 C.ar    1  UNL1        0.0398
     10 C         141.7935  136.9075  156.0026 C.ar    1  UNL1        0.1580
     11 C         140.3743  137.0446  156.4683 C.ar    1  UNL1        0.1353
     12 N         140.0582  137.8773  157.6752 N.ar    1  UNL1       -0.2433
     13 O         142.1097  136.0748  154.7957 O.3     1  UNL1       -0.4650
     14 C         142.8893  134.8020  154.9457 C.3     1  UNL1        0.3082
     15 C         142.8456  134.0439  156.2392 C.3     1  UNL1        0.4380
     16 F         142.8020  133.2857  157.5328 F       1  UNL1       -0.1663
     17 F         144.2147  134.5515  156.5829 F       1  UNL1       -0.1663
     18 F         141.4766  133.5364  155.8955 F       1  UNL1       -0.1663
     19 C         140.0877  137.4938  163.0176 C.3     1  UNL1        0.1113
     20 C         140.0776  138.1837  164.3495 C.ar    1  UNL1       -0.0131
     21 C         138.7756  138.4591  165.0417 C.ar    1  UNL1       -0.0038
     22 C         138.7655  139.1489  166.3736 C.ar    1  UNL1       -0.0002
     23 C         140.0574  139.5634  167.0134 C.ar    1  UNL1        0.0030
     24 C         141.3593  139.2880  166.3212 C.ar    1  UNL1       -0.0002
     25 C         141.3694  138.5982  164.9893 C.ar    1  UNL1       -0.0038
     26 C         140.0473  140.2533  168.3453 C.ar    1  UNL1        0.0403
     27 C         138.9541  140.1768  169.3696 C.ar    1  UNL1        0.1237
     28 N         139.3598  141.0170  170.5441 N.ar    1  UNL1       -0.1464
     29 N         140.7037  141.6128  170.2457 N.ar    1  UNL1       -0.1479
     30 N         141.5954  142.5241  171.0358 N.ar    1  UNL1       -0.1464
     31 C         142.9120  142.9634  170.4670 C.ar    1  UNL1        0.1222
     32 C         143.3369  142.4914  169.1081 C.ar    1  UNL1        0.0241
     33 C         142.4452  141.5801  168.3180 C.ar    1  UNL1        0.0226
     34 C         141.1286  141.1408  168.8868 C.ar    1  UNL1        0.1044
@<TRIPOS>BOND
     1     6     5    1
     2     6     1    1
     3     1     2   am
     4     2     3    2
     5     2    19    1
     6    19    20    1
     7    20    21   ar
     8    21    22   ar
     9    22    23   ar
    10    23    26    1
    11    26    27   ar
    12    27    28   ar
    13    28    29   ar
    14    29    30   ar
    15    30    31   ar
    16    31    32   ar
    17    32    33   ar
    18    33    34   ar
    19    23    24   ar
    20    24    25   ar
    21     6     7    1
    22     7     8   ar
    23     8     9   ar
    24     9    10   ar
    25    10    13    1
    26    13    14    1
    27    14    15    1
    28    15    16    1
    29    15    17    1
    30    15    18    1
    31    10    11   ar
    32    11    12   ar
    33    25    20   ar
    34    12     7   ar
    35    34    26   ar
    36    34    29   ar
    37     1     4    1
@<TRIPOS>MOLECULE
*****
 34 37 0 0 0
SMALL
GASTEIGER

@<TRIPOS>ATOM
      1 N         141.8227  145.3644  160.0727 N.am    1  UNL1       -0.3005
      2 C         140.5302  145.1204  160.7936 C.2     1  UNL1        0.2271
      3 O         139.4152  144.3882  160.1075 O.2     1  UNL1       -0.2747
      4 H         142.5545  145.8450  160.5231 H       1  UNL1        0.1497
      5 C         141.8108  145.8197  157.5148 C.3     1  UNL1        0.0278
      6 C         142.0003  144.8763  158.6655 C.3     1  UNL1        0.1119
      7 C         142.3675  143.4446  158.4090 C.ar    1  UNL1        0.0770
      8 C         141.3952  142.5327  157.7211 C.ar    1  UNL1        0.0195
      9 C         141.7624  141.1012  157.4646 C.ar    1  UNL1        0.0398
     10 C         143.1017  140.5815  157.8959 C.ar    1  UNL1        0.1580
     11 C         144.0740  141.4934  158.5838 C.ar    1  UNL1        0.1353
     12 N         143.7068  142.9250  158.8403 N.ar    1  UNL1       -0.2433
     13 O         143.4688  139.1500  157.6394 O.3     1  UNL1       -0.4650
     14 C         142.7986  138.0535  158.4132 C.3     1  UNL1        0.3082
     15 C         142.3533  138.2958  159.8249 C.3     1  UNL1        0.4380
     16 F         141.9079  138.5382  161.2365 F       1  UNL1       -0.1663
     17 F         140.9306  138.3930  159.3593 F       1  UNL1       -0.1663
     18 F         143.7759  138.1987  160.2903 F       1  UNL1       -0.1663
     19 C         140.3526  145.6085  162.2008 C.3     1  UNL1        0.1113
     20 C         140.7003  144.7148  163.3542 C.ar    1  UNL1       -0.0131
     21 C         139.6211  144.2179  164.2699 C.ar    1  UNL1       -0.0038
     22 C         139.9689  143.3242  165.4233 C.ar    1  UNL1       -0.0002
     23 C         141.3958  142.9273  165.6610 C.ar    1  UNL1        0.0030
     24 C         142.4749  143.4242  164.7453 C.ar    1  UNL1       -0.0002
     25 C         142.1272  144.3179  163.5919 C.ar    1  UNL1       -0.0038
     26 C         141.7435  142.0335  166.8144 C.ar    1  UNL1        0.0403
     27 C         142.6127  140.8126  166.7529 C.ar    1  UNL1        0.1237
     28 N         142.6894  140.2283  168.1323 N.ar    1  UNL1       -0.1464
     29 N         141.8677  141.0882  169.0463 N.ar    1  UNL1       -0.1479
     30 N         141.5763  140.9994  170.5150 N.ar    1  UNL1       -0.1464
     31 C         140.7003  142.0263  171.1692 C.ar    1  UNL1        0.1222
     32 C         140.1157  143.1420  170.3547 C.ar    1  UNL1        0.0241
     33 C         140.4071  143.2308  168.8860 C.ar    1  UNL1        0.0226
     34 C         141.2831  142.2039  168.2318 C.ar    1  UNL1        0.1044
@<TRIPOS>BOND
     1     6     5    1
     2     6     1    1
     3     1     2   am
     4     2     3    2
     5     2    19    1
     6    19    20    1
     7    20    21   ar
     8    21    22   ar
     9    22    23   ar
    10    23    26    1
    11    26    27   ar
    12    27    28   ar
    13    28    29   ar
    14    29    30   ar
    15    30    31   ar
    16    31    32   ar
    17    32    33   ar
    18    33    34   ar
    19    23    24   ar
    20    24    25   ar
    21     6     7    1
    22     7     8   ar
    23     8     9   ar
    24     9    10   ar
    25    10    13    1
    26    13    14    1
    27    14    15    1
    28    15    16    1
    29    15    17    1
    30    15    18    1
    31    10    11   ar
    32    11    12   ar
    33    25    20   ar
    34    12     7   ar
    35    34    26   ar
    36    34    29   ar
    37     1     4    1
@<TRIPOS>MOLECULE
*****
 34 37 0 0 0
SMALL
GASTEIGER

@<TRIPOS>ATOM
      1 N         140.3943  145.4708  160.4341 N.am    1  UNL1       -0.3005
      2 C         141.4703  145.0140  161.3741 C.2     1  UNL1        0.2271
      3 O         142.5938  144.1580  160.8690 O.2     1  UNL1       -0.2747
      4 H         139.6569  146.0326  160.7657 H       1  UNL1        0.1497
      5 C         141.3376  145.8071  158.0368 C.3     1  UNL1        0.0278
      6 C         140.4418  145.0716  158.9890 C.3     1  UNL1        0.1119
      7 C         139.5935  143.9370  158.4960 C.ar    1  UNL1        0.0770
      8 C         139.3192  143.7880  157.0288 C.ar    1  UNL1        0.0195
      9 C         138.4709  142.6533  156.5359 C.ar    1  UNL1        0.0398
     10 C         137.8969  141.6677  157.5101 C.ar    1  UNL1        0.1580
     11 C         138.1712  141.8167  158.9773 C.ar    1  UNL1        0.1353
     12 N         139.0194  142.9513  159.4702 N.ar    1  UNL1       -0.2433
     13 O         137.0486  140.5331  157.0171 O.3     1  UNL1       -0.4650
     14 C         136.3362  140.6456  155.7019 C.3     1  UNL1        0.3082
     15 C         134.8965  141.0647  155.6622 C.3     1  UNL1        0.4380
     16 F         133.4568  141.4839  155.6225 F       1  UNL1       -0.1663
     17 F         134.6495  140.3379  156.9509 F       1  UNL1       -0.1663
     18 F         135.1437  141.7915  154.3735 F       1  UNL1       -0.1663
     19 C         141.4228  145.4131  162.8192 C.3     1  UNL1        0.1113
     20 C         141.0478  144.4043  163.8640 C.ar    1  UNL1       -0.0131
     21 C         139.6638  144.4026  164.4425 C.ar    1  UNL1       -0.0038
     22 C         139.2888  143.3938  165.4873 C.ar    1  UNL1       -0.0002
     23 C         140.2978  142.3865  165.9536 C.ar    1  UNL1        0.0030
     24 C         141.6817  142.3882  165.3752 C.ar    1  UNL1       -0.0002
     25 C         142.0567  143.3970  164.3304 C.ar    1  UNL1       -0.0038
     26 C         139.9228  141.3777  166.9985 C.ar    1  UNL1        0.0403
     27 C         139.0928  140.1477  166.7787 C.ar    1  UNL1        0.1237
     28 N         138.9690  139.4316  168.0909 N.ar    1  UNL1       -0.1464
     29 N         139.7225  140.2189  169.1216 N.ar    1  UNL1       -0.1479
     30 N         139.9480  139.9961  170.5877 N.ar    1  UNL1       -0.1464
     31 C         140.7630  140.9760  171.3786 C.ar    1  UNL1        0.1222
     32 C         141.3525  142.1787  170.7034 C.ar    1  UNL1        0.0241
     33 C         141.1270  142.4016  169.2373 C.ar    1  UNL1        0.0226
     34 C         140.3120  141.4217  168.4464 C.ar    1  UNL1        0.1044
@<TRIPOS>BOND
     1     6     5    1
     2     6     1    1
     3     1     2   am
     4     2     3    2
     5     2    19    1
     6    19    20    1
     7    20    21   ar
     8    21    22   ar
     9    22    23   ar
    10    23    26    1
    11    26    27   ar
    12    27    28   ar
    13    28    29   ar
    14    29    30   ar
    15    30    31   ar
    16    31    32   ar
    17    32    33   ar
    18    33    34   ar
    19    23    24   ar
    20    24    25   ar
    21     6     7    1
    22     7     8   ar
    23     8     9   ar
    24     9    10   ar
    25    10    13    1
    26    13    14    1
    27    14    15    1
    28    15    16    1
    29    15    17    1
    30    15    18    1
    31    10    11   ar
    32    11    12   ar
    33    25    20   ar
    34    12     7   ar
    35    34    26   ar
    36    34    29   ar
    37     1     4    1
@<TRIPOS>MOLECULE
*****
 34 37 0 0 0
SMALL
GASTEIGER

@<TRIPOS>ATOM
      1 N         141.9488  145.1536  160.2220 N.am    1  UNL1       -0.3005
      2 C         140.6018  145.0834  160.8784 C.2     1  UNL1        0.2271
      3 O         139.4272  144.5350  160.1237 O.2     1  UNL1       -0.2747
      4 H         142.7196  145.5135  160.7174 H       1  UNL1        0.1497
      5 C         141.8984  145.6191  157.6665 C.3     1  UNL1        0.0278
      6 C         142.1211  144.6752  158.8108 C.3     1  UNL1        0.1119
      7 C         142.5163  143.2530  158.5439 C.ar    1  UNL1        0.0770
      8 C         143.9388  142.9212  158.2027 C.ar    1  UNL1        0.0195
      9 C         144.3339  141.4990  157.9358 C.ar    1  UNL1        0.0398
     10 C         143.3065  140.4086  158.0102 C.ar    1  UNL1        0.1580
     11 C         141.8840  140.7404  158.3515 C.ar    1  UNL1        0.1353
     12 N         141.4889  142.1625  158.6183 N.ar    1  UNL1       -0.2433
     13 O         143.7017  138.9864  157.7433 O.3     1  UNL1       -0.4650
     14 C         143.0297  138.2144  156.6468 C.3     1  UNL1        0.3082
     15 C         143.7715  137.1216  155.9357 C.3     1  UNL1        0.4380
     16 F         144.5132  136.0288  155.2246 F       1  UNL1       -0.1663
     17 F         142.7751  136.1188  156.4375 F       1  UNL1       -0.1663
     18 F         144.7677  138.1244  155.4339 F       1  UNL1       -0.1663
     19 C         140.4294  145.5617  162.2896 C.3     1  UNL1        0.1113
     20 C         140.3075  144.5698  163.4082 C.ar    1  UNL1       -0.0131
     21 C         139.3945  144.8516  164.5644 C.ar    1  UNL1       -0.0038
     22 C         139.2726  143.8596  165.6830 C.ar    1  UNL1       -0.0002
     23 C         140.0639  142.5857  165.6452 C.ar    1  UNL1        0.0030
     24 C         140.9768  142.3040  164.4890 C.ar    1  UNL1       -0.0002
     25 C         141.0987  143.2960  163.3705 C.ar    1  UNL1       -0.0038
     26 C         139.9420  141.5938  166.7638 C.ar    1  UNL1        0.0403
     27 C         139.3110  140.2360  166.6732 C.ar    1  UNL1        0.1237
     28 N         139.4088  139.5885  168.0228 N.ar    1  UNL1       -0.1464
     29 N         140.1002  140.5462  168.9474 N.ar    1  UNL1       -0.1479
     30 N         140.4723  140.4498  170.3973 N.ar    1  UNL1       -0.1464
     31 C         141.1739  141.5928  171.0690 C.ar    1  UNL1        0.1222
     32 C         141.5035  142.8321  170.2909 C.ar    1  UNL1        0.0241
     33 C         141.1314  142.9285  168.8410 C.ar    1  UNL1        0.0226
     34 C         140.4298  141.7855  168.1693 C.ar    1  UNL1        0.1044
@<TRIPOS>BOND
     1     6     5    1
     2     6     1    1
     3     1     2   am
     4     2     3    2
     5     2    19    1
     6    19    20    1
     7    20    21   ar
     8    21    22   ar
     9    22    23   ar
    10    23    26    1
    11    26    27   ar
    12    27    28   ar
    13    28    29   ar
    14    29    30   ar
    15    30    31   ar
    16    31    32   ar
    17    32    33   ar
    18    33    34   ar
    19    23    24   ar
    20    24    25   ar
    21     6     7    1
    22     7     8   ar
    23     8     9   ar
    24     9    10   ar
    25    10    13    1
    26    13    14    1
    27    14    15    1
    28    15    16    1
    29    15    17    1
    30    15    18    1
    31    10    11   ar
    32    11    12   ar
    33    25    20   ar
    34    12     7   ar
    35    34    26   ar
    36    34    29   ar
    37     1     4    1
@<TRIPOS>MOLECULE
*****
 34 37 0 0 0
SMALL
GASTEIGER

@<TRIPOS>ATOM
      1 N         140.1344  138.2313  160.8994 N.am    1  UNL1       -0.3005
      2 C         141.3495  138.2375  161.7790 C.2     1  UNL1        0.2271
      3 O         142.5295  139.0921  161.4220 O.2     1  UNL1       -0.2747
      4 H         139.3600  137.6704  161.1337 H       1  UNL1        0.1497
      5 C         140.1969  138.4384  158.3103 C.3     1  UNL1        0.0278
      6 C         140.0994  139.0796  159.6629 C.3     1  UNL1        0.1119
      7 C         139.9668  140.5693  159.7788 C.ar    1  UNL1        0.0770
      8 C         141.0551  141.4618  159.2601 C.ar    1  UNL1        0.0195
      9 C         140.9225  142.9514  159.3761 C.ar    1  UNL1        0.0398
     10 C         139.7015  143.5485  160.0107 C.ar    1  UNL1        0.1580
     11 C         138.6132  142.6561  160.5294 C.ar    1  UNL1        0.1353
     12 N         138.7459  141.1665  160.4134 N.ar    1  UNL1       -0.2433
     13 O         139.5690  145.0381  160.1267 O.3     1  UNL1       -0.4650
     14 C         140.2579  145.7680  161.2415 C.3     1  UNL1        0.3082
     15 C         140.1545  145.2582  162.6483 C.3     1  UNL1        0.4380
     16 F         140.0509  144.7483  164.0552 F       1  UNL1       -0.1663
     17 F         138.6629  145.4074  162.5927 F       1  UNL1       -0.1663
     18 F         141.6460  145.1089  162.7039 F       1  UNL1       -0.1663
     19 C         141.3846  137.3892  163.0155 C.3     1  UNL1        0.1113
     20 C         141.5023  138.0343  164.3646 C.ar    1  UNL1       -0.0131
     21 C         140.2819  138.5825  165.0428 C.ar    1  UNL1       -0.0038
     22 C         140.3996  139.2277  166.3919 C.ar    1  UNL1       -0.0002
     23 C         141.7379  139.3246  167.0627 C.ar    1  UNL1        0.0030
     24 C         142.9582  138.7764  166.3844 C.ar    1  UNL1       -0.0002
     25 C         142.8404  138.1312  165.0354 C.ar    1  UNL1       -0.0038
     26 C         141.8556  139.9697  168.4118 C.ar    1  UNL1        0.0403
     27 C         142.5019  139.3671  169.6239 C.ar    1  UNL1        0.1237
     28 N         142.3934  140.3557  170.7468 N.ar    1  UNL1       -0.1464
     29 N         141.6801  141.5693  170.2287 N.ar    1  UNL1       -0.1479
     30 N         141.2903  142.8607  170.8845 N.ar    1  UNL1       -0.1464
     31 C         140.5681  143.9136  170.0972 C.ar    1  UNL1        0.1222
     32 C         140.2357  143.6750  168.6541 C.ar    1  UNL1        0.0241
     33 C         140.6255  142.3836  167.9983 C.ar    1  UNL1        0.0226
     34 C         141.3477  141.3307  168.7855 C.ar    1  UNL1        0.1044
@<TRIPOS>BOND
     1     6     5    1
     2     6     1    1
     3     1     2   am
     4     2     3    2
     5     2    19    1
     6    19    20    1
     7    20    21   ar
     8    21    22   ar
     9    22    23   ar
    10    23    26    1
    11    26    27   ar
    12    27    28   ar
    13    28    29   ar
    14    29    30   ar
    15    30    31   ar
    16    31    32   ar
    17    32    33   ar
    18    33    34   ar
    19    23    24   ar
    20    24    25   ar
    21     6     7    1
    22     7     8   ar
    23     8     9   ar
    24     9    10   ar
    25    10    13    1
    26    13    14    1
    27    14    15    1
    28    15    16    1
    29    15    17    1
    30    15    18    1
    31    10    11   ar
    32    11    12   ar
    33    25    20   ar
    34    12     7   ar
    35    34    26   ar
    36    34    29   ar
    37     1     4    1
@<TRIPOS>MOLECULE
*****
 34 37 0 0 0
SMALL
GASTEIGER

@<TRIPOS>ATOM
      1 N         138.4068  138.4172  164.7465 N.am    1  UNL1       -0.3005
      2 C         139.6112  137.7644  164.1354 C.2     1  UNL1        0.2271
      3 O         140.7096  137.2442  165.0146 O.2     1  UNL1       -0.2747
      4 H         137.6859  138.7586  164.1695 H       1  UNL1        0.1497
      5 C         137.4705  137.5763  167.0195 C.3     1  UNL1        0.0278
      6 C         138.3010  138.5499  166.2369 C.3     1  UNL1        0.1119
      7 C         139.0255  139.6564  166.9447 C.ar    1  UNL1        0.0770
      8 C         139.7085  140.7322  166.1534 C.ar    1  UNL1        0.0195
      9 C         140.4330  141.8385  166.8613 C.ar    1  UNL1        0.0398
     10 C         140.4746  141.8690  168.3604 C.ar    1  UNL1        0.1580
     11 C         139.7916  140.7932  169.1517 C.ar    1  UNL1        0.1353
     12 N         139.0671  139.6869  168.4438 N.ar    1  UNL1       -0.2433
     13 O         141.1991  142.9754  169.0682 O.3     1  UNL1       -0.4650
     14 C         142.0495  142.6695  170.2654 C.3     1  UNL1        0.3082
     15 C         143.5447  142.6910  170.1486 C.3     1  UNL1        0.4380
     16 F         145.0400  142.7125  170.0318 F       1  UNL1       -0.1663
     17 F         143.6009  143.8626  171.0837 F       1  UNL1       -0.1663
     18 F         143.4885  141.5195  169.2135 F       1  UNL1       -0.1663
     19 C         139.7170  137.6317  162.6451 C.3     1  UNL1        0.1113
     20 C         140.4042  138.6976  161.8441 C.ar    1  UNL1       -0.0131
     21 C         140.5544  140.0796  162.4076 C.ar    1  UNL1       -0.0038
     22 C         141.2415  141.1456  161.6066 C.ar    1  UNL1       -0.0002
     23 C         141.7785  140.8296  160.2421 C.ar    1  UNL1        0.0030
     24 C         141.6282  139.4476  159.6786 C.ar    1  UNL1       -0.0002
     25 C         140.9411  138.3816  160.4796 C.ar    1  UNL1       -0.0038
     26 C         142.4656  141.8955  159.4411 C.ar    1  UNL1        0.0403
     27 C         143.8695  141.8367  158.9160 C.ar    1  UNL1        0.1237
     28 N         144.1410  143.1123  158.1750 N.ar    1  UNL1       -0.1464
     29 N         142.9050  143.9595  158.2422 N.ar    1  UNL1       -0.1479
     30 N         142.5885  145.3186  157.6919 N.ar    1  UNL1       -0.1464
     31 C         141.2367  145.9256  157.9241 C.ar    1  UNL1        0.1222
     32 C         140.2013  145.1736  158.7066 C.ar    1  UNL1        0.0241
     33 C         140.5177  143.8145  159.2569 C.ar    1  UNL1        0.0226
     34 C         141.8695  143.2075  159.0247 C.ar    1  UNL1        0.1044
@<TRIPOS>BOND
     1     6     5    1
     2     6     1    1
     3     1     2   am
     4     2     3    2
     5     2    19    1
     6    19    20    1
     7    20    21   ar
     8    21    22   ar
     9    22    23   ar
    10    23    26    1
    11    26    27   ar
    12    27    28   ar
    13    28    29   ar
    14    29    30   ar
    15    30    31   ar
    16    31    32   ar
    17    32    33   ar
    18    33    34   ar
    19    23    24   ar
    20    24    25   ar
    21     6     7    1
    22     7     8   ar
    23     8     9   ar
    24     9    10   ar
    25    10    13    1
    26    13    14    1
    27    14    15    1
    28    15    16    1
    29    15    17    1
    30    15    18    1
    31    10    11   ar
    32    11    12   ar
    33    25    20   ar
    34    12     7   ar
    35    34    26   ar
    36    34    29   ar
    37     1     4    1
@<TRIPOS>MOLECULE
*****
 34 37 0 0 0
SMALL
GASTEIGER

@<TRIPOS>ATOM
      1 N         139.8061  139.1849  161.2810 N.am    1  UNL1       -0.3005
      2 C         138.9851  138.2446  162.1127 C.2     1  UNL1        0.2271
      3 O         137.5475  137.9954  161.7647 O.2     1  UNL1       -0.2747
      4 H         140.7497  139.3484  161.5095 H       1  UNL1        0.1497
      5 C         138.3301  141.0881  160.3068 C.3     1  UNL1        0.0278
      6 C         139.1895  139.8760  160.1011 C.3     1  UNL1        0.1119
      7 C         139.4322  139.3550  158.7155 C.ar    1  UNL1        0.0770
      8 C         140.4904  138.3187  158.4786 C.ar    1  UNL1        0.0195
      9 C         140.7331  137.7978  157.0931 C.ar    1  UNL1        0.0398
     10 C         139.9175  138.3132  155.9445 C.ar    1  UNL1        0.1580
     11 C         138.8593  139.3495  156.1814 C.ar    1  UNL1        0.1353
     12 N         138.6166  139.8704  157.5669 N.ar    1  UNL1       -0.2433
     13 O         140.1603  137.7922  154.5590 O.3     1  UNL1       -0.4650
     14 C         141.3472  136.9173  154.2838 C.3     1  UNL1        0.3082
     15 C         141.1473  135.5182  153.7814 C.3     1  UNL1        0.4380
     16 F         140.9473  134.1191  153.2790 F       1  UNL1       -0.1663
     17 F         140.6958  135.0923  155.1470 F       1  UNL1       -0.1663
     18 F         141.5987  135.9441  152.4158 F       1  UNL1       -0.1663
     19 C         139.6017  137.5535  163.2926 C.3     1  UNL1        0.1113
     20 C         139.6989  138.2627  164.6108 C.ar    1  UNL1       -0.0131
     21 C         138.4694  138.4653  165.4458 C.ar    1  UNL1       -0.0038
     22 C         138.5665  139.1745  166.7640 C.ar    1  UNL1       -0.0002
     23 C         139.8932  139.6811  167.2472 C.ar    1  UNL1        0.0030
     24 C         141.1226  139.4784  166.4121 C.ar    1  UNL1       -0.0002
     25 C         141.0255  138.7692  165.0939 C.ar    1  UNL1       -0.0038
     26 C         139.9903  140.3903  168.5654 C.ar    1  UNL1        0.0403
     27 C         138.9545  140.3805  169.6502 C.ar    1  UNL1        0.1237
     28 N         139.4644  141.2179  170.7854 N.ar    1  UNL1       -0.1464
     29 N         140.8153  141.7453  170.4022 N.ar    1  UNL1       -0.1479
     30 N         141.7914  142.6252  171.1253 N.ar    1  UNL1       -0.1464
     31 C         143.0926  142.9936  170.4763 C.ar    1  UNL1        0.1222
     32 C         143.4176  142.4821  169.1042 C.ar    1  UNL1        0.0241
     33 C         142.4415  141.6022  168.3811 C.ar    1  UNL1        0.0226
     34 C         141.1404  141.2338  169.0301 C.ar    1  UNL1        0.1044
@<TRIPOS>BOND
     1     6     5    1
     2     6     1    1
     3     1     2   am
     4     2     3    2
     5     2    19    1
     6    19    20    1
     7    20    21   ar
     8    21    22   ar
     9    22    23   ar
    10    23    26    1
    11    26    27   ar
    12    27    28   ar
    13    28    29   ar
    14    29    30   ar
    15    30    31   ar
    16    31    32   ar
    17    32    33   ar
    18    33    34   ar
    19    23    24   ar
    20    24    25   ar
    21     6     7    1
    22     7     8   ar
    23     8     9   ar
    24     9    10   ar
    25    10    13    1
    26    13    14    1
    27    14    15    1
    28    15    16    1
    29    15    17    1
    30    15    18    1
    31    10    11   ar
    32    11    12   ar
    33    25    20   ar
    34    12     7   ar
    35    34    26   ar
    36    34    29   ar
    37     1     4    1
