@<TRIPOS>MOLECULE
*****
 35 37 0 0 0
SMALL
GASTEIGER

@<TRIPOS>ATOM
      1 C         143.7806  142.6008  162.8127 C.2     1  UNL1        0.2273
      2 O         143.7390  142.5217  164.3101 O.2     1  UNL1       -0.2748
      3 N         143.8608  141.3444  161.9972 N.am    1  UNL1       -0.2730
      4 C         143.9093  141.2667  160.5000 C.3     1  UNL1        0.0939
      5 C         143.9850  139.8194  160.1132 C.3     1  UNL1        0.0237
      6 C         143.9833  139.0027  161.3713 C.3     1  UNL1        0.0310
      7 C         143.9066  139.9452  162.5357 C.3     1  UNL1        0.1518
      8 C         143.8802  139.5567  163.9843 C.2     1  UNL1        0.2408
      9 O         145.1376  139.0964  164.6603 O.2     1  UNL1       -0.2733
     10 N         142.5964  139.6284  164.7568 N.am    1  UNL1       -0.2991
     11 H         141.7711  139.9305  164.3131 H       1  UNL1        0.1498
     12 C         142.5700  139.2399  166.2053 C.3     1  UNL1        0.1164
     13 C         141.8964  140.1291  167.2082 C.ar    1  UNL1       -0.0026
     14 C         140.4959  139.8302  167.6544 C.ar    1  UNL1       -0.0027
     15 C         139.8224  140.7194  168.6573 C.ar    1  UNL1        0.0036
     16 C         140.5495  141.9074  169.2139 C.ar    1  UNL1        0.0714
     17 C         141.9500  142.2063  168.7678 C.ar    1  UNL1        0.0036
     18 C         142.6235  141.3172  167.7649 C.ar    1  UNL1       -0.0027
     19 C         139.8759  142.7966  170.2168 C.3     1  UNL1        0.4186
     20 F         139.2025  143.6858  171.2197 F       1  UNL1       -0.1659
     21 F         138.8102  141.7608  170.4196 F       1  UNL1       -0.1659
     22 F         140.9416  143.8325  170.0140 F       1  UNL1       -0.1659
     23 C         143.7419  143.9364  162.1310 C.3     1  UNL1        0.1010
     24 N         141.8521  145.0698  160.7548 N.3     1  UNL1       -0.3215
     25 C         142.4610  144.7151  162.0790 C.3     1  UNL1        0.0644
     26 H         142.4369  144.7050  160.0030 H       1  UNL1        0.1188
     27 H         141.7855  146.0843  160.6720 H       1  UNL1        0.1188
     28 C         141.7890  145.1392  163.3512 C.3     1  UNL1        0.0446
     29 C         140.5365  144.4490  163.8039 C.ar    1  UNL1        0.0066
     30 C         140.6097  143.3631  164.8361 C.ar    1  UNL1       -0.0020
     31 C         139.3570  142.6730  165.2887 C.ar    1  UNL1       -0.0002
     32 C         138.0313  143.0688  164.7092 C.ar    1  UNL1        0.0023
     33 C         137.9582  144.1547  163.6770 C.ar    1  UNL1        0.0293
     34 C         139.2108  144.8448  163.2243 C.ar    1  UNL1        0.1362
     35 F         139.1376  145.9307  162.1921 F       1  UNL1       -0.2045
@<TRIPOS>BOND
     1    24    25    1
     2    25    23    1
     3    23     1    1
     4     1     2    2
     5     1     3   am
     6     3     4    1
     7     4     5    1
     8     5     6    1
     9     6     7    1
    10     7     8    1
    11     8     9    2
    12     8    10   am
    13    10    12    1
    14    12    13    1
    15    13    14   ar
    16    14    15   ar
    17    15    16   ar
    18    16    19    1
    19    19    20    1
    20    19    21    1
    21    19    22    1
    22    16    17   ar
    23    17    18   ar
    24    25    28    1
    25    28    29    1
    26    29    30   ar
    27    30    31   ar
    28    31    32   ar
    29    32    33   ar
    30    33    34   ar
    31    34    35    1
    32     7     3    1
    33    18    13   ar
    34    34    29   ar
    35    24    26    1
    36    24    27    1
    37    10    11    1
@<TRIPOS>MOLECULE
*****
 35 37 0 0 0
SMALL
GASTEIGER

@<TRIPOS>ATOM
      1 C         140.9742  141.1530  161.9603 C.2     1  UNL1        0.2273
      2 O         141.3823  141.6803  163.3039 O.2     1  UNL1       -0.2748
      3 N         141.6120  139.9084  161.4178 N.am    1  UNL1       -0.2730
      4 C         141.3077  139.2655  160.0971 C.3     1  UNL1        0.0939
      5 C         142.1737  138.0480  159.9638 C.3     1  UNL1        0.0237
      6 C         143.0131  137.9384  161.2021 C.3     1  UNL1        0.0310
      7 C         142.6660  139.0882  162.1007 C.3     1  UNL1        0.1518
      8 C         143.2673  139.3686  163.4459 C.2     1  UNL1        0.2408
      9 O         144.6890  139.8354  163.5495 O.2     1  UNL1       -0.2733
     10 N         142.4468  139.1822  164.6878 N.am    1  UNL1       -0.2991
     11 H         141.5136  138.8758  164.6199 H       1  UNL1        0.1498
     12 C         143.0481  139.4625  166.0331 C.3     1  UNL1        0.1164
     13 C         142.2786  140.2548  167.0481 C.ar    1  UNL1       -0.0026
     14 C         142.0549  139.6969  168.4224 C.ar    1  UNL1       -0.0027
     15 C         141.2854  140.4892  169.4374 C.ar    1  UNL1        0.0036
     16 C         140.7398  141.8394  169.0781 C.ar    1  UNL1        0.0714
     17 C         140.9635  142.3974  167.7039 C.ar    1  UNL1        0.0036
     18 C         141.7329  141.6051  166.6889 C.ar    1  UNL1       -0.0027
     19 C         139.9703  142.6317  170.0932 C.3     1  UNL1        0.4186
     20 F         139.2009  143.4240  171.1082 F       1  UNL1       -0.1659
     21 F         138.9793  141.5124  170.2156 F       1  UNL1       -0.1659
     22 F         140.9613  143.7510  169.9707 F       1  UNL1       -0.1659
     23 C         139.9283  141.8702  161.1592 C.3     1  UNL1        0.1010
     24 N         137.6870  143.0906  161.6461 N.3     1  UNL1       -0.3215
     25 C         138.4924  141.8264  161.5904 C.3     1  UNL1        0.0644
     26 H         138.2694  143.8776  161.3601 H       1  UNL1        0.1188
     27 H         137.3561  143.2412  162.5991 H       1  UNL1        0.1188
     28 C         137.8617  140.5182  161.9660 C.3     1  UNL1        0.0446
     29 C         138.2302  139.8516  163.2582 C.ar    1  UNL1        0.0066
     30 C         138.1121  140.6038  164.5505 C.ar    1  UNL1       -0.0020
     31 C         138.4806  139.9370  165.8427 C.ar    1  UNL1       -0.0002
     32 C         138.9671  138.5181  165.8425 C.ar    1  UNL1        0.0023
     33 C         139.0851  137.7659  164.5501 C.ar    1  UNL1        0.0293
     34 C         138.7166  138.4327  163.2580 C.ar    1  UNL1        0.1362
     35 F         138.8347  137.6804  161.9656 F       1  UNL1       -0.2045
@<TRIPOS>BOND
     1    24    25    1
     2    25    23    1
     3    23     1    1
     4     1     2    2
     5     1     3   am
     6     3     4    1
     7     4     5    1
     8     5     6    1
     9     6     7    1
    10     7     8    1
    11     8     9    2
    12     8    10   am
    13    10    12    1
    14    12    13    1
    15    13    14   ar
    16    14    15   ar
    17    15    16   ar
    18    16    19    1
    19    19    20    1
    20    19    21    1
    21    19    22    1
    22    16    17   ar
    23    17    18   ar
    24    25    28    1
    25    28    29    1
    26    29    30   ar
    27    30    31   ar
    28    31    32   ar
    29    32    33   ar
    30    33    34   ar
    31    34    35    1
    32     7     3    1
    33    18    13   ar
    34    34    29   ar
    35    24    26    1
    36    24    27    1
    37    10    11    1
@<TRIPOS>MOLECULE
*****
 35 37 0 0 0
SMALL
GASTEIGER

@<TRIPOS>ATOM
      1 C         138.3378  141.9837  163.5181 C.2     1  UNL1        0.2273
      2 O         138.8222  141.9699  164.9376 O.2     1  UNL1       -0.2748
      3 N         138.1515  140.6932  162.7766 N.am    1  UNL1       -0.2730
      4 C         137.6765  140.5504  161.3610 C.3     1  UNL1        0.0939
      5 C         137.6389  139.0878  161.0300 C.3     1  UNL1        0.0237
      6 C         138.0906  138.3268  162.2411 C.3     1  UNL1        0.0310
      7 C         138.4075  139.3189  163.3205 C.3     1  UNL1        0.1518
      8 C         138.8947  138.9939  164.7014 C.2     1  UNL1        0.2408
      9 O         140.1680  138.2226  164.8853 O.2     1  UNL1       -0.2733
     10 N         138.1087  139.4403  165.8985 N.am    1  UNL1       -0.2991
     11 H         137.2730  139.9466  165.7779 H       1  UNL1        0.1498
     12 C         138.5960  139.1153  167.2794 C.3     1  UNL1        0.1164
     13 C         139.5223  140.0579  167.9891 C.ar    1  UNL1       -0.0026
     14 C         139.2211  140.4900  169.3936 C.ar    1  UNL1       -0.0027
     15 C         140.1473  141.4325  170.1032 C.ar    1  UNL1        0.0036
     16 C         141.3748  141.9429  169.4084 C.ar    1  UNL1        0.0714
     17 C         141.6760  141.5108  168.0039 C.ar    1  UNL1        0.0036
     18 C         140.7498  140.5683  167.2943 C.ar    1  UNL1       -0.0027
     19 C         142.3011  142.8855  170.1181 C.3     1  UNL1        0.4186
     20 F         143.2274  143.8280  170.8278 F       1  UNL1       -0.1659
     21 F         143.3631  141.8263  170.1389 F       1  UNL1       -0.1659
     22 F         141.2392  143.9446  170.0973 F       1  UNL1       -0.1659
     23 C         138.0397  143.2882  162.8401 C.3     1  UNL1        0.1010
     24 N         138.9651  145.5866  162.0587 N.3     1  UNL1       -0.3215
     25 C         139.1588  144.1160  162.2814 C.3     1  UNL1        0.0644
     26 H         138.0209  145.8515  162.3393 H       1  UNL1        0.1188
     27 H         139.0990  145.8014  161.0706 H       1  UNL1        0.1188
     28 C         140.4718  143.4731  161.9455 C.3     1  UNL1        0.0446
     29 C         141.6294  143.5927  162.8918 C.ar    1  UNL1        0.0066
     30 C         142.3200  144.9125  163.0690 C.ar    1  UNL1       -0.0020
     31 C         143.4776  145.0320  164.0154 C.ar    1  UNL1       -0.0002
     32 C         143.9446  143.8320  164.7846 C.ar    1  UNL1        0.0023
     33 C         143.2539  142.5122  164.6074 C.ar    1  UNL1        0.0293
     34 C         142.0964  142.3927  163.6611 C.ar    1  UNL1        0.1362
     35 F         141.4058  141.0729  163.4839 F       1  UNL1       -0.2045
@<TRIPOS>BOND
     1    24    25    1
     2    25    23    1
     3    23     1    1
     4     1     2    2
     5     1     3   am
     6     3     4    1
     7     4     5    1
     8     5     6    1
     9     6     7    1
    10     7     8    1
    11     8     9    2
    12     8    10   am
    13    10    12    1
    14    12    13    1
    15    13    14   ar
    16    14    15   ar
    17    15    16   ar
    18    16    19    1
    19    19    20    1
    20    19    21    1
    21    19    22    1
    22    16    17   ar
    23    17    18   ar
    24    25    28    1
    25    28    29    1
    26    29    30   ar
    27    30    31   ar
    28    31    32   ar
    29    32    33   ar
    30    33    34   ar
    31    34    35    1
    32     7     3    1
    33    18    13   ar
    34    34    29   ar
    35    24    26    1
    36    24    27    1
    37    10    11    1
@<TRIPOS>MOLECULE
*****
 35 37 0 0 0
SMALL
GASTEIGER

@<TRIPOS>ATOM
      1 C         142.8262  142.9123  161.9788 C.2     1  UNL1        0.2273
      2 O         142.0669  142.7544  163.2628 O.2     1  UNL1       -0.2748
      3 N         142.0858  143.0991  160.6878 N.am    1  UNL1       -0.2730
      4 C         142.7058  143.2691  159.3325 C.3     1  UNL1        0.0939
      5 C         141.5986  143.4238  158.3324 C.3     1  UNL1        0.0237
      6 C         140.2944  143.3493  159.0695 C.3     1  UNL1        0.0310
      7 C         140.5955  143.1486  160.5252 C.3     1  UNL1        0.1518
      8 C         139.5839  143.0200  161.6253 C.2     1  UNL1        0.2408
      9 O         138.7523  144.2038  162.0216 O.2     1  UNL1       -0.2733
     10 N         139.4039  141.7076  162.3290 N.am    1  UNL1       -0.2991
     11 H         139.9496  140.9306  162.0689 H       1  UNL1        0.1498
     12 C         138.3923  141.5790  163.4291 C.3     1  UNL1        0.1164
     13 C         138.8280  141.1687  164.8045 C.ar    1  UNL1       -0.0026
     14 C         138.2843  139.9136  165.4202 C.ar    1  UNL1       -0.0027
     15 C         138.7201  139.5033  166.7956 C.ar    1  UNL1        0.0036
     16 C         139.6995  140.3481  167.5553 C.ar    1  UNL1        0.0714
     17 C         140.2432  141.6031  166.9396 C.ar    1  UNL1        0.0036
     18 C         139.8074  142.0134  165.5642 C.ar    1  UNL1       -0.0027
     19 C         140.1352  139.9377  168.9308 C.3     1  UNL1        0.4186
     20 F         140.5709  139.5274  170.3062 F       1  UNL1       -0.1659
     21 F         141.4956  139.5974  168.3983 F       1  UNL1       -0.1659
     22 F         138.7748  140.2780  169.4632 F       1  UNL1       -0.1659
     23 C         144.3260  142.8834  161.9861 C.3     1  UNL1        0.1010
     24 N         146.3090  141.8549  163.3127 N.3     1  UNL1       -0.3215
     25 C         145.0504  141.6813  162.5153 C.3     1  UNL1        0.0644
     26 H         146.5238  142.8485  163.3969 H       1  UNL1        0.1188
     27 H         147.0784  141.3794  162.8414 H       1  UNL1        0.1188
     28 C         144.5162  140.3056  162.2471 C.3     1  UNL1        0.0446
     29 C         143.6462  139.6275  163.2636 C.ar    1  UNL1        0.0066
     30 C         144.1894  139.3143  164.6263 C.ar    1  UNL1       -0.0020
     31 C         143.3192  138.6362  165.6428 C.ar    1  UNL1       -0.0002
     32 C         141.9061  138.2713  165.2965 C.ar    1  UNL1        0.0023
     33 C         141.3630  138.5845  163.9338 C.ar    1  UNL1        0.0293
     34 C         142.2331  139.2626  162.9174 C.ar    1  UNL1        0.1362
     35 F         141.6900  139.5757  161.5547 F       1  UNL1       -0.2045
@<TRIPOS>BOND
     1    24    25    1
     2    25    23    1
     3    23     1    1
     4     1     2    2
     5     1     3   am
     6     3     4    1
     7     4     5    1
     8     5     6    1
     9     6     7    1
    10     7     8    1
    11     8     9    2
    12     8    10   am
    13    10    12    1
    14    12    13    1
    15    13    14   ar
    16    14    15   ar
    17    15    16   ar
    18    16    19    1
    19    19    20    1
    20    19    21    1
    21    19    22    1
    22    16    17   ar
    23    17    18   ar
    24    25    28    1
    25    28    29    1
    26    29    30   ar
    27    30    31   ar
    28    31    32   ar
    29    32    33   ar
    30    33    34   ar
    31    34    35    1
    32     7     3    1
    33    18    13   ar
    34    34    29   ar
    35    24    26    1
    36    24    27    1
    37    10    11    1
@<TRIPOS>MOLECULE
*****
 35 37 0 0 0
SMALL
GASTEIGER

@<TRIPOS>ATOM
      1 C         142.3017  142.6823  161.1503 C.2     1  UNL1        0.2273
      2 O         141.8220  141.7285  162.2039 O.2     1  UNL1       -0.2748
      3 N         143.0111  142.1627  159.9351 N.am    1  UNL1       -0.2730
      4 C         143.5448  142.9911  158.8042 C.3     1  UNL1        0.0939
      5 C         144.1750  142.0638  157.8076 C.3     1  UNL1        0.0237
      6 C         144.0307  140.6624  158.3226 C.3     1  UNL1        0.0310
      7 C         143.3114  140.7235  159.6374 C.3     1  UNL1        0.1518
      8 C         142.9549  139.5513  160.5027 C.2     1  UNL1        0.2408
      9 O         141.9856  138.5199  160.0062 O.2     1  UNL1       -0.2733
     10 N         143.5678  139.4105  161.8646 N.am    1  UNL1       -0.2991
     11 H         144.2040  140.0874  162.1905 H       1  UNL1        0.1498
     12 C         143.2113  138.2382  162.7299 C.3     1  UNL1        0.1164
     13 C         141.9951  138.2951  163.6061 C.ar    1  UNL1       -0.0026
     14 C         140.8207  137.4076  163.3177 C.ar    1  UNL1       -0.0027
     15 C         139.6046  137.4646  164.1939 C.ar    1  UNL1        0.0036
     16 C         139.5628  138.4090  165.3585 C.ar    1  UNL1        0.0714
     17 C         140.7372  139.2965  165.6469 C.ar    1  UNL1        0.0036
     18 C         141.9533  139.2396  164.7707 C.ar    1  UNL1       -0.0027
     19 C         138.3466  138.4659  166.2347 C.3     1  UNL1        0.4186
     20 F         137.1305  138.5228  167.1109 F       1  UNL1       -0.1659
     21 F         138.1100  137.0032  166.0013 F       1  UNL1       -0.1659
     22 F         138.5832  139.9285  166.4681 F       1  UNL1       -0.1659
     23 C         142.0719  144.1558  161.3120 C.3     1  UNL1        0.1010
     24 N         144.0590  145.0751  162.7107 N.3     1  UNL1       -0.3215
     25 C         142.5847  144.8657  162.5297 C.3     1  UNL1        0.0644
     26 H         144.5592  144.6745  161.9172 H       1  UNL1        0.1188
     27 H         144.3642  144.6188  163.5704 H       1  UNL1        0.1188
     28 C         141.6233  145.3662  163.5666 C.3     1  UNL1        0.0446
     29 C         140.3715  144.5948  163.8632 C.ar    1  UNL1        0.0066
     30 C         140.3927  143.4934  164.8812 C.ar    1  UNL1       -0.0020
     31 C         139.1407  142.7220  165.1777 C.ar    1  UNL1       -0.0002
     32 C         137.8678  143.0520  164.4562 C.ar    1  UNL1        0.0023
     33 C         137.8467  144.1535  163.4382 C.ar    1  UNL1        0.0293
     34 C         139.0985  144.9248  163.1417 C.ar    1  UNL1        0.1362
     35 F         139.0773  146.0262  162.1236 F       1  UNL1       -0.2045
@<TRIPOS>BOND
     1    24    25    1
     2    25    23    1
     3    23     1    1
     4     1     2    2
     5     1     3   am
     6     3     4    1
     7     4     5    1
     8     5     6    1
     9     6     7    1
    10     7     8    1
    11     8     9    2
    12     8    10   am
    13    10    12    1
    14    12    13    1
    15    13    14   ar
    16    14    15   ar
    17    15    16   ar
    18    16    19    1
    19    19    20    1
    20    19    21    1
    21    19    22    1
    22    16    17   ar
    23    17    18   ar
    24    25    28    1
    25    28    29    1
    26    29    30   ar
    27    30    31   ar
    28    31    32   ar
    29    32    33   ar
    30    33    34   ar
    31    34    35    1
    32     7     3    1
    33    18    13   ar
    34    34    29   ar
    35    24    26    1
    36    24    27    1
    37    10    11    1
@<TRIPOS>MOLECULE
*****
 35 37 0 0 0
SMALL
GASTEIGER

@<TRIPOS>ATOM
      1 C         142.1740  142.3407  161.0846 C.2     1  UNL1        0.2273
      2 O         141.5243  141.8398  162.3404 O.2     1  UNL1       -0.2748
      3 N         141.6485  143.5720  160.4080 N.am    1  UNL1       -0.2730
      4 C         142.1920  144.1885  159.1532 C.3     1  UNL1        0.0939
      5 C         141.3666  145.4005  158.8371 C.3     1  UNL1        0.0237
      6 C         140.3131  145.5330  159.8966 C.3     1  UNL1        0.0310
      7 C         140.4873  144.4029  160.8675 C.3     1  UNL1        0.1518
      8 C         139.6477  144.1484  162.0841 C.2     1  UNL1        0.2408
      9 O         138.1685  143.9420  161.9448 O.2     1  UNL1       -0.2733
     10 N         140.2873  144.1004  163.4401 N.am    1  UNL1       -0.2991
     11 H         141.2581  144.2359  163.5315 H       1  UNL1        0.1498
     12 C         139.4477  143.8459  164.6568 C.3     1  UNL1        0.1164
     13 C         139.1203  142.4390  165.0613 C.ar    1  UNL1       -0.0026
     14 C         138.0948  141.6576  164.2947 C.ar    1  UNL1       -0.0027
     15 C         137.7675  140.2508  164.6993 C.ar    1  UNL1        0.0036
     16 C         138.4657  139.6254  165.8704 C.ar    1  UNL1        0.0714
     17 C         139.4912  140.4069  166.6369 C.ar    1  UNL1        0.0036
     18 C         139.8185  141.8137  166.2324 C.ar    1  UNL1       -0.0027
     19 C         138.1383  138.2185  166.2749 C.3     1  UNL1        0.4186
     20 F         137.8109  136.8117  166.6794 F       1  UNL1       -0.1659
     21 F         138.6045  137.7254  164.9372 F       1  UNL1       -0.1659
     22 F         137.6721  138.7117  167.6126 F       1  UNL1       -0.1659
     23 C         143.3491  141.6102  160.5054 C.3     1  UNL1        0.1010
     24 N         145.4498  141.9649  161.9925 N.3     1  UNL1       -0.3215
     25 C         144.4081  141.0554  161.4113 C.3     1  UNL1        0.0644
     26 H         145.2875  142.9184  161.6686 H       1  UNL1        0.1188
     27 H         146.3751  141.6570  161.6933 H       1  UNL1        0.1188
     28 C         144.4254  139.5911  161.7361 C.3     1  UNL1        0.0446
     29 C         143.6504  139.0745  162.9119 C.ar    1  UNL1        0.0066
     30 C         142.3602  138.3405  162.6958 C.ar    1  UNL1       -0.0020
     31 C         141.5852  137.8239  163.8717 C.ar    1  UNL1       -0.0002
     32 C         142.1004  138.0413  165.2635 C.ar    1  UNL1        0.0023
     33 C         143.3907  138.7752  165.4796 C.ar    1  UNL1        0.0293
     34 C         144.1656  139.2918  164.3037 C.ar    1  UNL1        0.1362
     35 F         145.4558  140.0257  164.5198 F       1  UNL1       -0.2045
@<TRIPOS>BOND
     1    24    25    1
     2    25    23    1
     3    23     1    1
     4     1     2    2
     5     1     3   am
     6     3     4    1
     7     4     5    1
     8     5     6    1
     9     6     7    1
    10     7     8    1
    11     8     9    2
    12     8    10   am
    13    10    12    1
    14    12    13    1
    15    13    14   ar
    16    14    15   ar
    17    15    16   ar
    18    16    19    1
    19    19    20    1
    20    19    21    1
    21    19    22    1
    22    16    17   ar
    23    17    18   ar
    24    25    28    1
    25    28    29    1
    26    29    30   ar
    27    30    31   ar
    28    31    32   ar
    29    32    33   ar
    30    33    34   ar
    31    34    35    1
    32     7     3    1
    33    18    13   ar
    34    34    29   ar
    35    24    26    1
    36    24    27    1
    37    10    11    1
@<TRIPOS>MOLECULE
*****
 35 37 0 0 0
SMALL
GASTEIGER

@<TRIPOS>ATOM
      1 C         141.8680  142.8514  161.5780 C.2     1  UNL1        0.2273
      2 O         141.1849  142.8377  162.9134 O.2     1  UNL1       -0.2748
      3 N         141.0936  142.5229  160.3361 N.am    1  UNL1       -0.2730
      4 C         141.6382  142.4961  158.9387 C.3     1  UNL1        0.0939
      5 C         140.5198  142.1202  158.0124 C.3     1  UNL1        0.0237
      6 C         139.2840  141.9147  158.8374 C.3     1  UNL1        0.0310
      7 C         139.6386  142.1636  160.2735 C.3     1  UNL1        0.1518
      8 C         138.7026  142.0697  161.4418 C.2     1  UNL1        0.2408
      9 O         137.6264  143.0984  161.6252 O.2     1  UNL1       -0.2733
     10 N         138.8427  140.9471  162.4268 N.am    1  UNL1       -0.2991
     11 H         139.5490  140.2719  162.3064 H       1  UNL1        0.1498
     12 C         137.9067  140.8532  163.5951 C.3     1  UNL1        0.1164
     13 C         138.4509  140.6436  164.9772 C.ar    1  UNL1       -0.0026
     14 C         138.0798  139.4132  165.7507 C.ar    1  UNL1       -0.0027
     15 C         138.6240  139.2037  167.1327 C.ar    1  UNL1        0.0036
     16 C         139.5392  140.2246  167.7411 C.ar    1  UNL1        0.0714
     17 C         139.9102  141.4550  166.9676 C.ar    1  UNL1        0.0036
     18 C         139.3661  141.6645  165.5856 C.ar    1  UNL1       -0.0027
     19 C         140.0834  140.0150  169.1232 C.3     1  UNL1        0.4186
     20 F         140.6275  139.8055  170.5052 F       1  UNL1       -0.1659
     21 F         141.3927  139.5723  168.5406 F       1  UNL1       -0.1659
     22 F         138.7740  140.4578  169.7058 F       1  UNL1       -0.1659
     23 C         143.3255  143.1936  161.4846 C.3     1  UNL1        0.1010
     24 N         143.7303  145.3606  162.8594 N.3     1  UNL1       -0.3215
     25 C         144.0028  143.9055  162.6179 C.3     1  UNL1        0.0644
     26 H         143.0662  145.7020  162.1646 H       1  UNL1        0.1188
     27 H         144.6011  145.8865  162.7847 H       1  UNL1        0.1188
     28 C         144.9527  143.1622  163.5096 C.3     1  UNL1        0.0446
     29 C         144.5498  141.8444  164.1020 C.ar    1  UNL1        0.0066
     30 C         145.2018  140.5789  163.6292 C.ar    1  UNL1       -0.0020
     31 C         144.7987  139.2610  164.2217 C.ar    1  UNL1       -0.0002
     32 C         143.7438  139.2087  165.2868 C.ar    1  UNL1        0.0023
     33 C         143.0919  140.4742  165.7595 C.ar    1  UNL1        0.0293
     34 C         143.4949  141.7920  165.1671 C.ar    1  UNL1        0.1362
     35 F         142.8429  143.0575  165.6398 F       1  UNL1       -0.2045
@<TRIPOS>BOND
     1    24    25    1
     2    25    23    1
     3    23     1    1
     4     1     2    2
     5     1     3   am
     6     3     4    1
     7     4     5    1
     8     5     6    1
     9     6     7    1
    10     7     8    1
    11     8     9    2
    12     8    10   am
    13    10    12    1
    14    12    13    1
    15    13    14   ar
    16    14    15   ar
    17    15    16   ar
    18    16    19    1
    19    19    20    1
    20    19    21    1
    21    19    22    1
    22    16    17   ar
    23    17    18   ar
    24    25    28    1
    25    28    29    1
    26    29    30   ar
    27    30    31   ar
    28    31    32   ar
    29    32    33   ar
    30    33    34   ar
    31    34    35    1
    32     7     3    1
    33    18    13   ar
    34    34    29   ar
    35    24    26    1
    36    24    27    1
    37    10    11    1
@<TRIPOS>MOLECULE
*****
 35 37 0 0 0
SMALL
GASTEIGER

@<TRIPOS>ATOM
      1 C         143.2264  142.2512  162.1880 C.2     1  UNL1        0.2273
      2 O         142.7898  141.5352  163.4317 O.2     1  UNL1       -0.2748
      3 N         143.3943  141.4918  160.9053 N.am    1  UNL1       -0.2730
      4 C         143.8225  142.0690  159.5887 C.3     1  UNL1        0.0939
      5 C         143.8564  140.9559  158.5837 C.3     1  UNL1        0.0237
      6 C         143.4492  139.6909  159.2792 C.3     1  UNL1        0.0310
      7 C         143.1636  140.0221  160.7141 C.3     1  UNL1        0.1518
      8 C         142.7244  139.0536  161.7720 C.2     1  UNL1        0.2408
      9 O         143.6767  138.0094  162.2747 O.2     1  UNL1       -0.2733
     10 N         141.3330  139.1294  162.3271 N.am    1  UNL1       -0.2991
     11 H         140.7080  139.8147  161.9972 H       1  UNL1        0.1498
     12 C         140.8938  138.1609  163.3850 C.3     1  UNL1        0.1164
     13 C         140.4319  138.6665  164.7196 C.ar    1  UNL1       -0.0026
     14 C         138.9844  138.5658  165.0997 C.ar    1  UNL1       -0.0027
     15 C         138.5225  139.0714  166.4343 C.ar    1  UNL1        0.0036
     16 C         139.5082  139.6776  167.3887 C.ar    1  UNL1        0.0714
     17 C         140.9557  139.7783  167.0085 C.ar    1  UNL1        0.0036
     18 C         141.4175  139.2728  165.6740 C.ar    1  UNL1       -0.0027
     19 C         139.0463  140.1832  168.7233 C.3     1  UNL1        0.4186
     20 F         138.5844  140.6888  170.0578 F       1  UNL1       -0.1659
     21 F         137.8563  139.2726  168.6565 F       1  UNL1       -0.1659
     22 F         140.2363  141.0939  168.7901 F       1  UNL1       -0.1659
     23 C         143.4951  143.7264  162.2270 C.3     1  UNL1        0.1010
     24 N         141.9467  145.2758  160.8300 N.3     1  UNL1       -0.3215
     25 C         142.3553  144.6986  162.1528 C.3     1  UNL1        0.0644
     26 H         142.5467  144.9006  160.0954 H       1  UNL1        0.1188
     27 H         142.0391  146.2912  160.8590 H       1  UNL1        0.1188
     28 C         141.6239  145.0935  163.4015 C.3     1  UNL1        0.0446
     29 C         140.3531  144.3923  163.7799 C.ar    1  UNL1        0.0066
     30 C         140.3789  143.2901  164.7971 C.ar    1  UNL1       -0.0020
     31 C         139.1079  142.5890  165.1754 C.ar    1  UNL1       -0.0002
     32 C         137.8113  142.9900  164.5368 C.ar    1  UNL1        0.0023
     33 C         137.7856  144.0922  163.5196 C.ar    1  UNL1        0.0293
     34 C         139.0565  144.7933  163.1413 C.ar    1  UNL1        0.1362
     35 F         139.0307  145.8955  162.1241 F       1  UNL1       -0.2045
@<TRIPOS>BOND
     1    24    25    1
     2    25    23    1
     3    23     1    1
     4     1     2    2
     5     1     3   am
     6     3     4    1
     7     4     5    1
     8     5     6    1
     9     6     7    1
    10     7     8    1
    11     8     9    2
    12     8    10   am
    13    10    12    1
    14    12    13    1
    15    13    14   ar
    16    14    15   ar
    17    15    16   ar
    18    16    19    1
    19    19    20    1
    20    19    21    1
    21    19    22    1
    22    16    17   ar
    23    17    18   ar
    24    25    28    1
    25    28    29    1
    26    29    30   ar
    27    30    31   ar
    28    31    32   ar
    29    32    33   ar
    30    33    34   ar
    31    34    35    1
    32     7     3    1
    33    18    13   ar
    34    34    29   ar
    35    24    26    1
    36    24    27    1
    37    10    11    1
@<TRIPOS>MOLECULE
*****
 35 37 0 0 0
SMALL
GASTEIGER

@<TRIPOS>ATOM
      1 C         141.0568  140.6041  161.6391 C.2     1  UNL1        0.2273
      2 O         141.2289  140.1910  163.0707 O.2     1  UNL1       -0.2748
      3 N         142.1464  141.3628  160.9412 N.am    1  UNL1       -0.2730
      4 C         142.1170  141.8403  159.5195 C.3     1  UNL1        0.0939
      5 C         143.4092  142.5499  159.2421 C.3     1  UNL1        0.0237
      6 C         144.2371  142.5108  160.4923 C.3     1  UNL1        0.0310
      7 C         143.4567  141.7772  161.5424 C.3     1  UNL1        0.1518
      8 C         143.9073  141.5056  162.9470 C.2     1  UNL1        0.2408
      9 O         145.0775  140.6013  163.1976 O.2     1  UNL1       -0.2733
     10 N         143.1878  142.1384  164.1012 N.am    1  UNL1       -0.2991
     11 H         142.4198  142.7320  163.9367 H       1  UNL1        0.1498
     12 C         143.6385  141.8669  165.5058 C.3     1  UNL1        0.1164
     13 C         142.7379  142.1960  166.6594 C.ar    1  UNL1       -0.0026
     14 C         141.2821  142.4675  166.4206 C.ar    1  UNL1       -0.0027
     15 C         140.3816  142.7966  167.5741 C.ar    1  UNL1        0.0036
     16 C         140.9367  142.8543  168.9664 C.ar    1  UNL1        0.0714
     17 C         142.3925  142.5828  169.2051 C.ar    1  UNL1        0.0036
     18 C         143.2930  142.2537  168.0516 C.ar    1  UNL1       -0.0027
     19 C         140.0361  143.1834  170.1199 C.3     1  UNL1        0.4186
     20 F         139.1355  143.5125  171.2734 F       1  UNL1       -0.1659
     21 F         140.5083  144.6067  170.0825 F       1  UNL1       -0.1659
     22 F         139.5639  141.7602  170.1573 F       1  UNL1       -0.1659
     23 C         139.7949  140.2585  160.9054 C.3     1  UNL1        0.1010
     24 N         137.2743  140.2628  161.5354 N.3     1  UNL1       -0.3215
     25 C         138.5294  141.0101  161.1945 C.3     1  UNL1        0.0644
     26 H         137.4621  139.2602  161.5248 H       1  UNL1        0.1188
     27 H         136.5519  140.4806  160.8491 H       1  UNL1        0.1188
     28 C         138.5190  142.5092  161.1426 C.3     1  UNL1        0.0446
     29 C         138.6804  143.3044  162.4042 C.ar    1  UNL1        0.0066
     30 C         137.6099  143.2702  163.4544 C.ar    1  UNL1       -0.0020
     31 C         137.7714  144.0655  164.7161 C.ar    1  UNL1       -0.0002
     32 C         139.0032  144.8948  164.9274 C.ar    1  UNL1        0.0023
     33 C         140.0737  144.9290  163.8771 C.ar    1  UNL1        0.0293
     34 C         139.9122  144.1338  162.6156 C.ar    1  UNL1        0.1362
     35 F         140.9827  144.1680  161.5654 F       1  UNL1       -0.2045
@<TRIPOS>BOND
     1    24    25    1
     2    25    23    1
     3    23     1    1
     4     1     2    2
     5     1     3   am
     6     3     4    1
     7     4     5    1
     8     5     6    1
     9     6     7    1
    10     7     8    1
    11     8     9    2
    12     8    10   am
    13    10    12    1
    14    12    13    1
    15    13    14   ar
    16    14    15   ar
    17    15    16   ar
    18    16    19    1
    19    19    20    1
    20    19    21    1
    21    19    22    1
    22    16    17   ar
    23    17    18   ar
    24    25    28    1
    25    28    29    1
    26    29    30   ar
    27    30    31   ar
    28    31    32   ar
    29    32    33   ar
    30    33    34   ar
    31    34    35    1
    32     7     3    1
    33    18    13   ar
    34    34    29   ar
    35    24    26    1
    36    24    27    1
    37    10    11    1
