@<TRIPOS>MOLECULE
*****
 29 32 0 0 0
SMALL
GASTEIGER

@<TRIPOS>ATOM
      1 N         141.3650  143.8768  163.6089 N.3     1  UNL1       -0.2641
      2 C         140.2755  143.4412  164.5434 C.3     1  UNL1        0.0730
      3 C         140.6201  142.7194  165.8124 C.3     1  UNL1        0.0245
      4 C         142.0540  142.4334  166.1470 C.3     1  UNL1        0.0577
      5 C         143.1435  142.8691  165.2125 C.3     1  UNL1        0.1808
      6 F         144.5775  142.5830  165.5470 F       1  UNL1       -0.2354
      7 C         142.7989  143.5908  163.9435 C.3     1  UNL1        0.1084
      8 C         142.3985  141.7116  167.4160 C.ar    1  UNL1       -0.0196
      9 C         142.1185  140.2436  167.5437 C.ar    1  UNL1       -0.0011
     10 C         142.4630  139.5218  168.8127 C.ar    1  UNL1        0.0363
     11 C         143.0876  140.2683  169.9541 C.ar    1  UNL1        0.1337
     12 O         143.4321  139.5466  171.2231 O.3     1  UNL1       -0.5055
     13 C         143.3676  141.7364  169.8265 C.ar    1  UNL1        0.0363
     14 C         143.0231  142.4581  168.5575 C.ar    1  UNL1       -0.0011
     15 H         143.2571  138.6295  171.3028 H       1  UNL1        0.2922
     16 N         141.0173  145.3195  160.0224 N.am    1  UNL1       -0.2743
     17 C         139.9634  146.0989  160.7517 C.3     1  UNL1        0.0957
     18 C         139.9654  145.6533  162.1841 C.3     1  UNL1        0.0468
     19 C         141.0205  144.5985  162.3400 C.3     1  UNL1        0.1368
     20 C         141.6706  144.3922  161.0040 C.2     1  UNL1        0.2404
     21 O         142.7793  143.4280  160.7025 O.2     1  UNL1       -0.2734
     22 C         141.3580  145.4452  158.5670 C.3     1  UNL1        0.1202
     23 C         137.1174  144.5945  154.4085 C.3     1  UNL1        0.0310
     24 C         138.1775  144.8072  155.4482 C.ar    1  UNL1       -0.0219
     25 C         138.6285  143.6615  156.3048 C.ar    1  UNL1       -0.0045
     26 C         139.6887  143.8741  157.3444 C.ar    1  UNL1       -0.0029
     27 C         140.2979  145.2325  157.5274 C.ar    1  UNL1       -0.0024
     28 C         139.8469  146.3783  156.6708 C.ar    1  UNL1       -0.0029
     29 C         138.7867  146.1656  155.6312 C.ar    1  UNL1       -0.0045
@<TRIPOS>BOND
     1    23    24    1
     2    24    25   ar
     3    25    26   ar
     4    26    27   ar
     5    27    22    1
     6    22    16    1
     7    16    17    1
     8    17    18    1
     9    18    19    1
    10    19     1    1
    11     1     2    1
    12     2     3    1
    13     3     4    1
    14     4     8    1
    15     8     9   ar
    16     9    10   ar
    17    10    11   ar
    18    11    12    1
    19    11    13   ar
    20    13    14   ar
    21     4     5    1
    22     5     6    1
    23     5     7    1
    24    19    20    1
    25    20    21    2
    26    27    28   ar
    27    28    29   ar
    28    29    24   ar
    29    20    16   am
    30     7     1    1
    31    14     8   ar
    32    12    15    1
@<TRIPOS>MOLECULE
*****
 29 32 0 0 0
SMALL
GASTEIGER

@<TRIPOS>ATOM
      1 N         141.2517  138.8175  162.2610 N.3     1  UNL1       -0.2641
      2 C         141.1360  137.6555  163.2025 C.3     1  UNL1        0.0730
      3 C         141.1225  137.8891  164.6842 C.3     1  UNL1        0.0245
      4 C         141.2247  139.2847  165.2244 C.3     1  UNL1        0.0577
      5 C         141.3403  140.4468  164.2829 C.3     1  UNL1        0.1808
      6 F         141.4424  141.8424  164.8231 F       1  UNL1       -0.2354
      7 C         141.3538  140.2131  162.8012 C.3     1  UNL1        0.1084
      8 C         141.2112  139.5184  166.7060 C.ar    1  UNL1       -0.0196
      9 C         142.4760  139.3749  167.4994 C.ar    1  UNL1       -0.0011
     10 C         142.4625  139.6085  168.9811 C.ar    1  UNL1        0.0363
     11 C         141.1841  139.9856  169.6692 C.ar    1  UNL1        0.1337
     12 O         141.1706  140.2192  171.1508 O.3     1  UNL1       -0.5055
     13 C         139.9192  140.1291  168.8758 C.ar    1  UNL1        0.0363
     14 C         139.9327  139.8955  167.3942 C.ar    1  UNL1       -0.0011
     15 H         141.9607  140.1296  171.6465 H       1  UNL1        0.2922
     16 N         141.9799  137.9444  158.5499 N.am    1  UNL1       -0.2743
     17 C         140.5920  138.5043  158.4489 C.3     1  UNL1        0.0957
     18 C         140.1502  138.8995  159.8269 C.3     1  UNL1        0.0468
     19 C         141.2652  138.5839  160.7795 C.3     1  UNL1        0.1368
     20 C         142.3959  137.9936  159.9903 C.2     1  UNL1        0.2404
     21 O         143.7118  137.5333  160.5440 O.2     1  UNL1       -0.2734
     22 C         142.8067  137.4263  157.4106 C.3     1  UNL1        0.1202
     23 C         141.7133  131.9795  155.1443 C.3     1  UNL1        0.0310
     24 C         141.9866  133.3412  155.7109 C.ar    1  UNL1       -0.0219
     25 C         141.2394  134.5335  155.1913 C.ar    1  UNL1       -0.0045
     26 C         141.5128  135.8952  155.7579 C.ar    1  UNL1       -0.0029
     27 C         142.5333  136.0646  156.8440 C.ar    1  UNL1       -0.0024
     28 C         143.2805  134.8723  157.3636 C.ar    1  UNL1       -0.0029
     29 C         143.0072  133.5106  156.7970 C.ar    1  UNL1       -0.0045
@<TRIPOS>BOND
     1    23    24    1
     2    24    25   ar
     3    25    26   ar
     4    26    27   ar
     5    27    22    1
     6    22    16    1
     7    16    17    1
     8    17    18    1
     9    18    19    1
    10    19     1    1
    11     1     2    1
    12     2     3    1
    13     3     4    1
    14     4     8    1
    15     8     9   ar
    16     9    10   ar
    17    10    11   ar
    18    11    12    1
    19    11    13   ar
    20    13    14   ar
    21     4     5    1
    22     5     6    1
    23     5     7    1
    24    19    20    1
    25    20    21    2
    26    27    28   ar
    27    28    29   ar
    28    29    24   ar
    29    20    16   am
    30     7     1    1
    31    14     8   ar
    32    12    15    1
@<TRIPOS>MOLECULE
*****
 29 32 0 0 0
SMALL
GASTEIGER

@<TRIPOS>ATOM
      1 N         142.6270  141.4818  163.1249 N.3     1  UNL1       -0.2641
      2 C         143.4824  140.4549  163.8058 C.3     1  UNL1        0.0730
      3 C         143.4437  140.3171  165.2990 C.3     1  UNL1        0.0245
      4 C         142.5496  141.2063  166.1113 C.3     1  UNL1        0.0577
      5 C         141.6941  142.2333  165.4304 C.3     1  UNL1        0.1808
      6 F         140.7999  143.1225  166.2427 F       1  UNL1       -0.2354
      7 C         141.7328  142.3710  163.9372 C.3     1  UNL1        0.1084
      8 C         142.5109  141.0685  167.6045 C.ar    1  UNL1       -0.0196
      9 C         143.0542  142.1641  168.4731 C.ar    1  UNL1       -0.0011
     10 C         143.0155  142.0263  169.9662 C.ar    1  UNL1        0.0363
     11 C         142.4334  140.7929  170.5907 C.ar    1  UNL1        0.1337
     12 O         142.3947  140.6552  172.0839 O.3     1  UNL1       -0.5055
     13 C         141.8900  139.6974  169.7221 C.ar    1  UNL1        0.0363
     14 C         141.9287  139.8351  168.2290 C.ar    1  UNL1       -0.0011
     15 H         142.7341  141.3395  172.6265 H       1  UNL1        0.2922
     16 N         142.9850  142.5316  159.4054 N.am    1  UNL1       -0.2743
     17 C         142.4655  141.1317  159.2627 C.3     1  UNL1        0.0957
     18 C         142.2682  140.5680  160.6388 C.3     1  UNL1        0.0468
     19 C         142.6657  141.6196  161.6319 C.3     1  UNL1        0.1368
     20 C         143.1087  142.8331  160.8696 C.2     1  UNL1        0.2404
     21 O         143.5908  144.1219  161.4666 O.2     1  UNL1       -0.2734
     22 C         143.3217  143.4659  158.2813 C.3     1  UNL1        0.1202
     23 C         139.1708  147.2587  156.1873 C.3     1  UNL1        0.0310
     24 C         140.2085  146.3105  156.7108 C.ar    1  UNL1       -0.0219
     25 C         141.2605  145.7671  155.7900 C.ar    1  UNL1       -0.0045
     26 C         142.2982  144.8189  156.3135 C.ar    1  UNL1       -0.0029
     27 C         142.2840  144.4141  157.7578 C.ar    1  UNL1       -0.0024
     28 C         141.2320  144.9576  158.6786 C.ar    1  UNL1       -0.0029
     29 C         140.1942  145.9058  158.1551 C.ar    1  UNL1       -0.0045
@<TRIPOS>BOND
     1    23    24    1
     2    24    25   ar
     3    25    26   ar
     4    26    27   ar
     5    27    22    1
     6    22    16    1
     7    16    17    1
     8    17    18    1
     9    18    19    1
    10    19     1    1
    11     1     2    1
    12     2     3    1
    13     3     4    1
    14     4     8    1
    15     8     9   ar
    16     9    10   ar
    17    10    11   ar
    18    11    12    1
    19    11    13   ar
    20    13    14   ar
    21     4     5    1
    22     5     6    1
    23     5     7    1
    24    19    20    1
    25    20    21    2
    26    27    28   ar
    27    28    29   ar
    28    29    24   ar
    29    20    16   am
    30     7     1    1
    31    14     8   ar
    32    12    15    1
@<TRIPOS>MOLECULE
*****
 29 32 0 0 0
SMALL
GASTEIGER

@<TRIPOS>ATOM
      1 N         141.0781  138.8386  161.7129 N.3     1  UNL1       -0.2641
      2 C         140.9820  140.2204  162.2885 C.3     1  UNL1        0.0730
      3 C         141.0132  140.4175  163.7751 C.3     1  UNL1        0.0245
      4 C         141.1405  139.2328  164.6863 C.3     1  UNL1        0.0577
      5 C         141.2366  137.8508  164.1107 C.3     1  UNL1        0.1808
      6 F         141.3639  136.6661  165.0219 F       1  UNL1       -0.2354
      7 C         141.2054  137.6538  162.6240 C.3     1  UNL1        0.1084
      8 C         141.1717  139.4298  166.1730 C.ar    1  UNL1       -0.0196
      9 C         142.4546  139.2430  166.9275 C.ar    1  UNL1       -0.0011
     10 C         142.4858  139.4401  168.4142 C.ar    1  UNL1        0.0363
     11 C         141.2340  139.8240  169.1462 C.ar    1  UNL1        0.1337
     12 O         141.2652  140.0211  170.6329 O.3     1  UNL1       -0.5055
     13 C         139.9512  140.0108  168.3917 C.ar    1  UNL1        0.0363
     14 C         139.9200  139.8138  166.9051 C.ar    1  UNL1       -0.0011
     15 H         142.0666  139.9044  171.1043 H       1  UNL1        0.2922
     16 N         141.7450  138.2626  157.9329 N.am    1  UNL1       -0.2743
     17 C         140.2527  138.4137  157.9441 C.3     1  UNL1        0.0957
     18 C         139.8212  138.6479  159.3616 C.3     1  UNL1        0.0468
     19 C         141.0469  138.6415  160.2263 C.3     1  UNL1        0.1368
     20 C         142.2358  138.4034  159.3434 C.2     1  UNL1        0.2404
     21 O         143.6647  138.3206  159.7920 O.2     1  UNL1       -0.2734
     22 C         142.5970  138.0143  156.7235 C.3     1  UNL1        0.1202
     23 C         142.9662  132.4968  154.3954 C.3     1  UNL1        0.0310
     24 C         142.8739  133.8762  154.9774 C.ar    1  UNL1       -0.0219
     25 C         143.0919  134.0865  156.4465 C.ar    1  UNL1       -0.0045
     26 C         142.9995  135.4659  157.0285 C.ar    1  UNL1       -0.0029
     27 C         142.6893  136.6350  156.1415 C.ar    1  UNL1       -0.0024
     28 C         142.4713  136.4247  154.6724 C.ar    1  UNL1       -0.0029
     29 C         142.5637  135.0453  154.0904 C.ar    1  UNL1       -0.0045
@<TRIPOS>BOND
     1    23    24    1
     2    24    25   ar
     3    25    26   ar
     4    26    27   ar
     5    27    22    1
     6    22    16    1
     7    16    17    1
     8    17    18    1
     9    18    19    1
    10    19     1    1
    11     1     2    1
    12     2     3    1
    13     3     4    1
    14     4     8    1
    15     8     9   ar
    16     9    10   ar
    17    10    11   ar
    18    11    12    1
    19    11    13   ar
    20    13    14   ar
    21     4     5    1
    22     5     6    1
    23     5     7    1
    24    19    20    1
    25    20    21    2
    26    27    28   ar
    27    28    29   ar
    28    29    24   ar
    29    20    16   am
    30     7     1    1
    31    14     8   ar
    32    12    15    1
@<TRIPOS>MOLECULE
*****
 29 32 0 0 0
SMALL
GASTEIGER

@<TRIPOS>ATOM
      1 N         140.1573  139.8125  163.1648 N.3     1  UNL1       -0.2641
      2 C         139.1496  140.8325  163.6051 C.3     1  UNL1        0.0730
      3 C         139.1138  141.2825  165.0356 C.3     1  UNL1        0.0245
      4 C         140.0857  140.7124  166.0257 C.3     1  UNL1        0.0577
      5 C         141.0935  139.6923  165.5854 C.3     1  UNL1        0.1808
      6 F         142.0654  139.1222  166.5755 F       1  UNL1       -0.2354
      7 C         141.1292  139.2424  164.1549 C.3     1  UNL1        0.1084
      8 C         140.0499  141.1624  167.4562 C.ar    1  UNL1       -0.0196
      9 C         140.5745  142.5171  167.8297 C.ar    1  UNL1       -0.0011
     10 C         140.5387  142.9671  169.2602 C.ar    1  UNL1        0.0363
     11 C         139.9783  142.0622  170.3171 C.ar    1  UNL1        0.1337
     12 O         139.9425  142.5122  171.7476 O.3     1  UNL1       -0.5055
     13 C         139.4537  140.7075  169.9437 C.ar    1  UNL1        0.0363
     14 C         139.4894  140.2575  168.5133 C.ar    1  UNL1       -0.0011
     15 H         140.2702  143.3584  171.9809 H       1  UNL1        0.2922
     16 N         140.9463  138.9362  159.4668 N.am    1  UNL1       -0.2743
     17 C         139.5501  138.4039  159.5993 C.3     1  UNL1        0.0957
     18 C         139.0846  138.6674  161.0007 C.3     1  UNL1        0.0468
     19 C         140.1931  139.3625  161.7344 C.3     1  UNL1        0.1368
     20 C         141.3436  139.5287  160.7864 C.2     1  UNL1        0.2404
     21 O         142.6603  140.1739  161.1024 O.2     1  UNL1       -0.2734
     22 C         141.7958  138.8851  158.2317 C.3     1  UNL1        0.1202
     23 C         141.7127  134.0115  154.7329 C.3     1  UNL1        0.0310
     24 C         141.7335  135.2299  155.6076 C.ar    1  UNL1       -0.0219
     25 C         142.7768  135.3681  156.6764 C.ar    1  UNL1       -0.0045
     26 C         142.7976  136.5865  157.5511 C.ar    1  UNL1       -0.0029
     27 C         141.7751  137.6667  157.3570 C.ar    1  UNL1       -0.0024
     28 C         140.7318  137.5284  156.2881 C.ar    1  UNL1       -0.0029
     29 C         140.7110  136.3100  155.4135 C.ar    1  UNL1       -0.0045
@<TRIPOS>BOND
     1    23    24    1
     2    24    25   ar
     3    25    26   ar
     4    26    27   ar
     5    27    22    1
     6    22    16    1
     7    16    17    1
     8    17    18    1
     9    18    19    1
    10    19     1    1
    11     1     2    1
    12     2     3    1
    13     3     4    1
    14     4     8    1
    15     8     9   ar
    16     9    10   ar
    17    10    11   ar
    18    11    12    1
    19    11    13   ar
    20    13    14   ar
    21     4     5    1
    22     5     6    1
    23     5     7    1
    24    19    20    1
    25    20    21    2
    26    27    28   ar
    27    28    29   ar
    28    29    24   ar
    29    20    16   am
    30     7     1    1
    31    14     8   ar
    32    12    15    1
@<TRIPOS>MOLECULE
*****
 29 32 0 0 0
SMALL
GASTEIGER

@<TRIPOS>ATOM
      1 N         140.3306  143.4822  161.8679 N.3     1  UNL1       -0.2641
      2 C         141.1175  142.2563  162.2258 C.3     1  UNL1        0.0730
      3 C         140.9971  141.6619  163.5978 C.3     1  UNL1        0.0245
      4 C         140.0899  142.2934  164.6118 C.3     1  UNL1        0.0577
      5 C         139.3030  143.5194  164.2539 C.3     1  UNL1        0.1808
      6 F         138.3959  144.1508  165.2679 F       1  UNL1       -0.2354
      7 C         139.4235  144.1137  162.8819 C.3     1  UNL1        0.1084
      8 C         139.9696  141.6990  165.9838 C.ar    1  UNL1       -0.0196
      9 C         139.3020  140.3686  166.1688 C.ar    1  UNL1       -0.0011
     10 C         139.1817  139.7742  167.5408 C.ar    1  UNL1        0.0363
     11 C         139.7290  140.5104  168.7276 C.ar    1  UNL1        0.1337
     12 O         139.6086  139.9160  170.0996 O.3     1  UNL1       -0.5055
     13 C         140.3965  141.8408  168.5426 C.ar    1  UNL1        0.0363
     14 C         140.5169  142.4352  167.1707 C.ar    1  UNL1       -0.0011
     15 H         139.1916  139.0850  170.2152 H       1  UNL1        0.2922
     16 N         140.0451  144.5886  158.1585 N.am    1  UNL1       -0.2743
     17 C         141.2271  145.3938  158.6109 C.3     1  UNL1        0.0957
     18 C         141.4780  145.0773  160.0556 C.3     1  UNL1        0.0468
     19 C         140.4510  144.0765  160.4960 C.3     1  UNL1        0.1368
     20 C         139.5654  143.7745  159.3235 C.2     1  UNL1        0.2404
     21 O         138.4042  142.8252  159.3171 O.2     1  UNL1       -0.2734
     22 C         139.4477  144.5962  156.7826 C.3     1  UNL1        0.1202
     23 C         140.2065  149.3556  153.2087 C.3     1  UNL1        0.0310
     24 C         140.0168  148.1658  154.1022 C.ar    1  UNL1       -0.0219
     25 C         140.7204  146.8772  153.7948 C.ar    1  UNL1       -0.0045
     26 C         140.5307  145.6874  154.6882 C.ar    1  UNL1       -0.0029
     27 C         139.6374  145.7861  155.8891 C.ar    1  UNL1       -0.0024
     28 C         138.9338  147.0746  156.1966 C.ar    1  UNL1       -0.0029
     29 C         139.1235  148.2645  155.3031 C.ar    1  UNL1       -0.0045
@<TRIPOS>BOND
     1    23    24    1
     2    24    25   ar
     3    25    26   ar
     4    26    27   ar
     5    27    22    1
     6    22    16    1
     7    16    17    1
     8    17    18    1
     9    18    19    1
    10    19     1    1
    11     1     2    1
    12     2     3    1
    13     3     4    1
    14     4     8    1
    15     8     9   ar
    16     9    10   ar
    17    10    11   ar
    18    11    12    1
    19    11    13   ar
    20    13    14   ar
    21     4     5    1
    22     5     6    1
    23     5     7    1
    24    19    20    1
    25    20    21    2
    26    27    28   ar
    27    28    29   ar
    28    29    24   ar
    29    20    16   am
    30     7     1    1
    31    14     8   ar
    32    12    15    1
@<TRIPOS>MOLECULE
*****
 29 32 0 0 0
SMALL
GASTEIGER

@<TRIPOS>ATOM
      1 N         139.8025  140.0964  163.2316 N.3     1  UNL1       -0.2641
      2 C         138.8192  141.0684  163.8133 C.3     1  UNL1        0.0730
      3 C         138.9003  141.4392  165.2645 C.3     1  UNL1        0.0245
      4 C         139.9646  140.8381  166.1339 C.3     1  UNL1        0.0577
      5 C         140.9479  139.8661  165.5522 C.3     1  UNL1        0.1808
      6 F         142.0122  139.2649  166.4216 F       1  UNL1       -0.2354
      7 C         140.8668  139.4953  164.1010 C.3     1  UNL1        0.1084
      8 C         140.0456  141.2090  167.5851 C.ar    1  UNL1       -0.0196
      9 C         139.6029  140.2329  168.6345 C.ar    1  UNL1       -0.0011
     10 C         139.6839  140.6038  170.0857 C.ar    1  UNL1        0.0363
     11 C         140.2078  141.9507  170.4874 C.ar    1  UNL1        0.1337
     12 O         140.2888  142.3216  171.9386 O.3     1  UNL1       -0.5055
     13 C         140.6505  142.9268  169.4380 C.ar    1  UNL1        0.0363
     14 C         140.5695  142.5559  167.9869 C.ar    1  UNL1       -0.0011
     15 H         140.0122  141.7118  172.5941 H       1  UNL1        0.2922
     16 N         139.7422  139.8657  159.3575 N.am    1  UNL1       -0.2743
     17 C         139.4512  138.4440  159.7371 C.3     1  UNL1        0.0957
     18 C         139.4383  138.3574  161.2346 C.3     1  UNL1        0.0468
     19 C         139.7214  139.7256  161.7805 C.3     1  UNL1        0.1368
     20 C         139.9093  140.6578  160.6204 C.2     1  UNL1        0.2404
     21 O         140.2111  142.1244  160.7078 O.2     1  UNL1       -0.2734
     22 C         139.8478  140.4014  157.9604 C.3     1  UNL1        0.1202
     23 C         135.0984  140.1906  154.2999 C.3     1  UNL1        0.0310
     24 C         136.2857  140.2433  155.2150 C.ar    1  UNL1       -0.0219
     25 C         137.5506  139.5271  154.8445 C.ar    1  UNL1       -0.0045
     26 C         138.7379  139.5798  155.7597 C.ar    1  UNL1       -0.0029
     27 C         138.6604  140.3487  157.0453 C.ar    1  UNL1       -0.0024
     28 C         137.3956  141.0648  157.4157 C.ar    1  UNL1       -0.0029
     29 C         136.2083  141.0121  156.5006 C.ar    1  UNL1       -0.0045
@<TRIPOS>BOND
     1    23    24    1
     2    24    25   ar
     3    25    26   ar
     4    26    27   ar
     5    27    22    1
     6    22    16    1
     7    16    17    1
     8    17    18    1
     9    18    19    1
    10    19     1    1
    11     1     2    1
    12     2     3    1
    13     3     4    1
    14     4     8    1
    15     8     9   ar
    16     9    10   ar
    17    10    11   ar
    18    11    12    1
    19    11    13   ar
    20    13    14   ar
    21     4     5    1
    22     5     6    1
    23     5     7    1
    24    19    20    1
    25    20    21    2
    26    27    28   ar
    27    28    29   ar
    28    29    24   ar
    29    20    16   am
    30     7     1    1
    31    14     8   ar
    32    12    15    1
@<TRIPOS>MOLECULE
*****
 29 32 0 0 0
SMALL
GASTEIGER

@<TRIPOS>ATOM
      1 N         143.3659  140.9730  162.8019 N.3     1  UNL1       -0.2641
      2 C         144.3501  140.2317  163.6574 C.3     1  UNL1        0.0730
      3 C         144.1715  140.1954  165.1463 C.3     1  UNL1        0.0245
      4 C         143.0088  140.9004  165.7797 C.3     1  UNL1        0.0577
      5 C         142.0246  141.6417  164.9241 C.3     1  UNL1        0.1808
      6 F         140.8619  142.3466  165.5575 F       1  UNL1       -0.2354
      7 C         142.2032  141.6779  163.4352 C.3     1  UNL1        0.1084
      8 C         142.8303  140.8641  167.2686 C.ar    1  UNL1       -0.0196
      9 C         142.9713  142.1231  168.0718 C.ar    1  UNL1       -0.0011
     10 C         142.7928  142.0868  169.5607 C.ar    1  UNL1        0.0363
     11 C         142.4732  140.7915  170.2463 C.ar    1  UNL1        0.1337
     12 O         142.2946  140.7552  171.7352 O.3     1  UNL1       -0.5055
     13 C         142.3321  139.5325  169.4431 C.ar    1  UNL1        0.0363
     14 C         142.5106  139.5688  167.9543 C.ar    1  UNL1       -0.0011
     15 H         142.3827  141.5416  172.2369 H       1  UNL1        0.2922
     16 N         143.8201  141.8149  159.0402 N.am    1  UNL1       -0.2743
     17 C         143.8183  140.3153  159.0034 C.3     1  UNL1        0.0957
     18 C         143.6479  139.8173  160.4081 C.3     1  UNL1        0.0468
     19 C         143.5445  141.0092  161.3130 C.3     1  UNL1        0.1368
     20 C         143.6509  142.2437  160.4676 C.2     1  UNL1        0.2404
     21 O         143.5974  143.6586  160.9626 O.2     1  UNL1       -0.2734
     22 C         143.9656  142.7256  157.8573 C.3     1  UNL1        0.1202
     23 C         148.4575  141.8962  153.9669 C.3     1  UNL1        0.0310
     24 C         147.3346  142.1035  154.9395 C.ar    1  UNL1       -0.0219
     25 C         145.9120  142.0261  154.4702 C.ar    1  UNL1       -0.0045
     26 C         144.7890  142.2334  155.4428 C.ar    1  UNL1       -0.0029
     27 C         145.0886  142.5183  156.8847 C.ar    1  UNL1       -0.0024
     28 C         146.5112  142.5958  157.3540 C.ar    1  UNL1       -0.0029
     29 C         147.6341  142.3884  156.3814 C.ar    1  UNL1       -0.0045
@<TRIPOS>BOND
     1    23    24    1
     2    24    25   ar
     3    25    26   ar
     4    26    27   ar
     5    27    22    1
     6    22    16    1
     7    16    17    1
     8    17    18    1
     9    18    19    1
    10    19     1    1
    11     1     2    1
    12     2     3    1
    13     3     4    1
    14     4     8    1
    15     8     9   ar
    16     9    10   ar
    17    10    11   ar
    18    11    12    1
    19    11    13   ar
    20    13    14   ar
    21     4     5    1
    22     5     6    1
    23     5     7    1
    24    19    20    1
    25    20    21    2
    26    27    28   ar
    27    28    29   ar
    28    29    24   ar
    29    20    16   am
    30     7     1    1
    31    14     8   ar
    32    12    15    1
@<TRIPOS>MOLECULE
*****
 29 32 0 0 0
SMALL
GASTEIGER

@<TRIPOS>ATOM
      1 N         142.7709  140.4894  162.6449 N.3     1  UNL1       -0.2641
      2 C         141.9625  141.5756  163.2904 C.3     1  UNL1        0.0730
      3 C         141.5223  141.4355  164.7176 C.3     1  UNL1        0.0245
      4 C         141.8905  140.2093  165.4991 C.3     1  UNL1        0.0577
      5 C         142.6989  139.1231  164.8535 C.3     1  UNL1        0.1808
      6 F         143.0672  137.8969  165.6351 F       1  UNL1       -0.2354
      7 C         143.1391  139.2632  163.4264 C.3     1  UNL1        0.1084
      8 C         141.4503  140.0692  166.9262 C.ar    1  UNL1       -0.0196
      9 C         139.9984  140.1997  167.2795 C.ar    1  UNL1       -0.0011
     10 C         139.5582  140.0596  168.7066 C.ar    1  UNL1        0.0363
     11 C         140.5701  139.7891  169.7804 C.ar    1  UNL1        0.1337
     12 O         140.1299  139.6490  171.2075 O.3     1  UNL1       -0.5055
     13 C         142.0220  139.6586  169.4271 C.ar    1  UNL1        0.0363
     14 C         142.4622  139.7987  168.0001 C.ar    1  UNL1       -0.0011
     15 H         139.2229  139.7305  171.4282 H       1  UNL1        0.2922
     16 N         143.9527  141.5865  159.1143 N.am    1  UNL1       -0.2743
     17 C         143.8242  140.1035  158.9291 C.3     1  UNL1        0.0957
     18 C         143.3658  139.5120  160.2292 C.3     1  UNL1        0.0468
     19 C         143.2110  140.6295  161.2178 C.3     1  UNL1        0.1368
     20 C         143.5737  141.9115  160.5288 C.2     1  UNL1        0.2404
     21 O         143.5599  143.2786  161.1459 O.2     1  UNL1       -0.2734
     22 C         144.3843  142.5715  158.0686 C.3     1  UNL1        0.1202
     23 C         149.4937  141.6943  155.0480 C.3     1  UNL1        0.0310
     24 C         148.2164  141.9136  155.8031 C.ar    1  UNL1       -0.0219
     25 C         148.2105  142.7708  157.0340 C.ar    1  UNL1       -0.0045
     26 C         146.9331  142.9901  157.7891 C.ar    1  UNL1       -0.0029
     27 C         145.6617  142.3522  157.3134 C.ar    1  UNL1       -0.0024
     28 C         145.6675  141.4950  156.0826 C.ar    1  UNL1       -0.0029
     29 C         146.9449  141.2757  155.3274 C.ar    1  UNL1       -0.0045
@<TRIPOS>BOND
     1    23    24    1
     2    24    25   ar
     3    25    26   ar
     4    26    27   ar
     5    27    22    1
     6    22    16    1
     7    16    17    1
     8    17    18    1
     9    18    19    1
    10    19     1    1
    11     1     2    1
    12     2     3    1
    13     3     4    1
    14     4     8    1
    15     8     9   ar
    16     9    10   ar
    17    10    11   ar
    18    11    12    1
    19    11    13   ar
    20    13    14   ar
    21     4     5    1
    22     5     6    1
    23     5     7    1
    24    19    20    1
    25    20    21    2
    26    27    28   ar
    27    28    29   ar
    28    29    24   ar
    29    20    16   am
    30     7     1    1
    31    14     8   ar
    32    12    15    1
