@<TRIPOS>MOLECULE
*****
 29 31 0 0 0
SMALL
GASTEIGER

@<TRIPOS>ATOM
      1 C         141.3096  140.6388  165.6186 C.2     1  UNL1        0.0106
      2 C         141.6996  140.3385  167.0355 C.2     1  UNL1        0.0576
      3 CL        142.6968  139.2561  167.3257 Cl      1  UNL1       -0.0822
      4 C         143.1315  138.2931  162.2381 C.ar    1  UNL1        0.1386
      5 C         141.8122  137.8743  162.8160 C.ar    1  UNL1        0.0369
      6 C         141.2049  138.6562  163.9428 C.ar    1  UNL1        0.0031
      7 C         141.9169  139.8569  164.4918 C.ar    1  UNL1        0.0010
      8 C         143.2362  140.2756  163.9139 C.ar    1  UNL1        0.0031
      9 C         143.8435  139.4937  162.7870 C.ar    1  UNL1        0.0369
     10 O         143.7388  137.5111  161.1112 O.3     1  UNL1       -0.4740
     11 C         143.1339  137.5783  159.7403 C.3     1  UNL1        0.2226
     12 C         142.7309  138.9026  159.1624 C.3     1  UNL1        0.1200
     13 N         141.3411  139.4238  159.3791 N.3     1  UNL1       -0.2696
     14 C         139.1288  138.5151  160.3940 C.3     1  UNL1        0.0188
     15 C         140.1707  138.4878  159.3153 C.3     1  UNL1        0.0722
     16 C         141.1218  140.8808  159.6597 C.3     1  UNL1        0.0722
     17 C         141.1452  141.3844  161.0725 C.3     1  UNL1        0.0188
     18 C         141.0923  141.1204  168.1624 C.ar    1  UNL1        0.0106
     19 C         141.7090  142.4184  168.5924 C.ar    1  UNL1        0.0008
     20 C         141.1017  143.2004  169.7192 C.ar    1  UNL1        0.0000
     21 C         139.8777  142.6842  170.4161 C.ar    1  UNL1        0.0000
     22 C         139.2611  141.3862  169.9861 C.ar    1  UNL1        0.0000
     23 C         139.8684  140.6043  168.8593 C.ar    1  UNL1        0.0008
     24 C         140.3124  141.7211  165.3286 C.ar    1  UNL1        0.0008
     25 C         140.7461  143.1570  165.3166 C.ar    1  UNL1        0.0000
     26 C         139.7488  144.2393  165.0265 C.ar    1  UNL1        0.0000
     27 C         138.3179  143.8857  164.7484 C.ar    1  UNL1        0.0000
     28 C         137.8842  142.4498  164.7604 C.ar    1  UNL1        0.0000
     29 C         138.8814  141.3675  165.0505 C.ar    1  UNL1        0.0000
@<TRIPOS>BOND
     1    14    15    1
     2    15    13    1
     3    13    16    1
     4    16    17    1
     5    13    12    1
     6    12    11    1
     7    11    10    1
     8    10     4    1
     9     4     5   ar
    10     5     6   ar
    11     6     7   ar
    12     7     1    1
    13     1     2    2
    14     2     3    1
    15     2    18    1
    16    18    19   ar
    17    19    20   ar
    18    20    21   ar
    19    21    22   ar
    20    22    23   ar
    21     1    24    1
    22    24    25   ar
    23    25    26   ar
    24    26    27   ar
    25    27    28   ar
    26    28    29   ar
    27     7     8   ar
    28     8     9   ar
    29     9     4   ar
    30    23    18   ar
    31    29    24   ar
@<TRIPOS>MOLECULE
*****
 29 31 0 0 0
SMALL
GASTEIGER

@<TRIPOS>ATOM
      1 C         141.6721  142.3595  165.0918 C.2     1  UNL1        0.0106
      2 C         141.0751  142.5373  166.4563 C.2     1  UNL1        0.0576
      3 CL        139.9555  143.5137  166.6638 Cl      1  UNL1       -0.0822
      4 C         140.1043  144.7557  161.6204 C.ar    1  UNL1        0.1386
      5 C         139.6903  143.3242  161.7915 C.ar    1  UNL1        0.0369
      6 C         140.2129  142.5255  162.9486 C.ar    1  UNL1        0.0031
      7 C         141.1495  143.1583  163.9346 C.ar    1  UNL1        0.0010
      8 C         141.5636  144.5898  163.7635 C.ar    1  UNL1        0.0031
      9 C         141.0410  145.3885  162.6064 C.ar    1  UNL1        0.0369
     10 O         139.5817  145.5545  160.4633 O.3     1  UNL1       -0.4740
     11 C         140.2182  145.4212  159.1116 C.3     1  UNL1        0.2226
     12 C         141.6450  144.9731  158.9953 C.3     1  UNL1        0.1200
     13 N         141.9667  143.5108  158.9028 N.3     1  UNL1       -0.2696
     14 C         140.7089  141.2380  158.8546 C.3     1  UNL1        0.0188
     15 C         141.0052  142.5721  158.2362 C.3     1  UNL1        0.0722
     16 C         143.2498  142.9874  159.4769 C.3     1  UNL1        0.0722
     17 C         143.4683  143.0013  160.9609 C.3     1  UNL1        0.0188
     18 C         141.5977  141.7385  167.6134 C.ar    1  UNL1        0.0106
     19 C         142.8163  142.2021  168.3553 C.ar    1  UNL1        0.0008
     20 C         143.3389  141.4033  169.5124 C.ar    1  UNL1        0.0000
     21 C         142.6429  140.1411  169.9277 C.ar    1  UNL1        0.0000
     22 C         141.4244  139.6776  169.1858 C.ar    1  UNL1        0.0000
     23 C         140.9018  140.4763  168.0287 C.ar    1  UNL1        0.0008
     24 C         142.7917  141.3831  164.8844 C.ar    1  UNL1        0.0008
     25 C         144.1545  141.8758  164.4972 C.ar    1  UNL1        0.0000
     26 C         145.2741  140.8992  164.2898 C.ar    1  UNL1        0.0000
     27 C         145.0308  139.4301  164.4695 C.ar    1  UNL1        0.0000
     28 C         143.6680  138.9374  164.8567 C.ar    1  UNL1        0.0000
     29 C         142.5484  139.9138  165.0641 C.ar    1  UNL1        0.0000
@<TRIPOS>BOND
     1    14    15    1
     2    15    13    1
     3    13    16    1
     4    16    17    1
     5    13    12    1
     6    12    11    1
     7    11    10    1
     8    10     4    1
     9     4     5   ar
    10     5     6   ar
    11     6     7   ar
    12     7     1    1
    13     1     2    2
    14     2     3    1
    15     2    18    1
    16    18    19   ar
    17    19    20   ar
    18    20    21   ar
    19    21    22   ar
    20    22    23   ar
    21     1    24    1
    22    24    25   ar
    23    25    26   ar
    24    26    27   ar
    25    27    28   ar
    26    28    29   ar
    27     7     8   ar
    28     8     9   ar
    29     9     4   ar
    30    23    18   ar
    31    29    24   ar
@<TRIPOS>MOLECULE
*****
 29 31 0 0 0
SMALL
GASTEIGER

@<TRIPOS>ATOM
      1 C         141.5260  142.1511  164.6706 C.2     1  UNL1        0.0106
      2 C         142.0584  141.4215  165.8682 C.2     1  UNL1        0.0576
      3 CL        143.4122  140.7777  165.8135 Cl      1  UNL1       -0.0822
      4 C         143.9895  142.4081  160.9137 C.ar    1  UNL1        0.1386
      5 C         143.0974  141.2249  161.1461 C.ar    1  UNL1        0.0369
      6 C         142.2763  141.1392  162.3984 C.ar    1  UNL1        0.0031
      7 C         142.3472  142.2367  163.4183 C.ar    1  UNL1        0.0010
      8 C         143.2393  143.4200  163.1859 C.ar    1  UNL1        0.0031
      9 C         144.0604  143.5057  161.9336 C.ar    1  UNL1        0.0369
     10 O         144.8107  142.4938  159.6613 O.3     1  UNL1       -0.4740
     11 C         144.1901  142.9926  158.3902 C.3     1  UNL1        0.2226
     12 C         142.7080  143.2107  158.3144 C.3     1  UNL1        0.1200
     13 N         142.1409  144.5850  158.5142 N.3     1  UNL1       -0.2696
     14 C         141.0376  146.1020  156.7166 C.3     1  UNL1        0.0188
     15 C         142.2639  145.6122  157.4281 C.3     1  UNL1        0.0722
     16 C         141.4508  144.9319  159.8000 C.3     1  UNL1        0.0722
     17 C         140.5812  143.9176  160.4819 C.3     1  UNL1        0.0188
     18 C         141.2373  141.3359  167.1205 C.ar    1  UNL1        0.0106
     19 C         141.3332  142.4172  168.1558 C.ar    1  UNL1        0.0008
     20 C         140.5120  142.3315  169.4081 C.ar    1  UNL1        0.0000
     21 C         139.5949  141.1645  169.6252 C.ar    1  UNL1        0.0000
     22 C         139.4990  140.0833  168.5899 C.ar    1  UNL1        0.0000
     23 C         140.3202  140.1689  167.3376 C.ar    1  UNL1        0.0008
     24 C         140.1723  142.7949  164.7254 C.ar    1  UNL1        0.0008
     25 C         140.0385  144.2238  165.1616 C.ar    1  UNL1        0.0000
     26 C         138.6847  144.8676  165.2163 C.ar    1  UNL1        0.0000
     27 C         137.4649  144.0825  164.8348 C.ar    1  UNL1        0.0000
     28 C         137.5987  142.6536  164.3986 C.ar    1  UNL1        0.0000
     29 C         138.9524  142.0098  164.3439 C.ar    1  UNL1        0.0000
@<TRIPOS>BOND
     1    14    15    1
     2    15    13    1
     3    13    16    1
     4    16    17    1
     5    13    12    1
     6    12    11    1
     7    11    10    1
     8    10     4    1
     9     4     5   ar
    10     5     6   ar
    11     6     7   ar
    12     7     1    1
    13     1     2    2
    14     2     3    1
    15     2    18    1
    16    18    19   ar
    17    19    20   ar
    18    20    21   ar
    19    21    22   ar
    20    22    23   ar
    21     1    24    1
    22    24    25   ar
    23    25    26   ar
    24    26    27   ar
    25    27    28   ar
    26    28    29   ar
    27     7     8   ar
    28     8     9   ar
    29     9     4   ar
    30    23    18   ar
    31    29    24   ar
@<TRIPOS>MOLECULE
*****
 29 31 0 0 0
SMALL
GASTEIGER

@<TRIPOS>ATOM
      1 C         142.2321  139.6368  163.9402 C.2     1  UNL1        0.0106
      2 C         143.3645  140.0342  164.8399 C.2     1  UNL1        0.0576
      3 CL        144.7578  140.1333  164.2929 Cl      1  UNL1       -0.0822
      4 C         143.0142  138.7419  159.6000 C.ar    1  UNL1        0.1386
      5 C         143.2002  137.6696  160.6322 C.ar    1  UNL1        0.0369
      6 C         142.9395  137.9679  162.0789 C.ar    1  UNL1        0.0031
      7 C         142.4928  139.3385  162.4934 C.ar    1  UNL1        0.0010
      8 C         142.3068  140.4108  161.4612 C.ar    1  UNL1        0.0031
      9 C         142.5675  140.1125  160.0145 C.ar    1  UNL1        0.0369
     10 O         143.2749  138.4436  158.1532 O.3     1  UNL1       -0.4740
     11 C         142.6127  137.2676  157.4987 C.3     1  UNL1        0.2226
     12 C         143.3271  136.5092  156.4196 C.3     1  UNL1        0.1200
     13 N         142.8716  135.1300  156.0448 N.3     1  UNL1       -0.2696
     14 C         141.5394  134.4137  153.9324 C.3     1  UNL1        0.0188
     15 C         141.5628  134.9388  155.3373 C.3     1  UNL1        0.0722
     16 C         143.7248  133.9420  156.3776 C.3     1  UNL1        0.0722
     17 C         144.0248  133.6116  157.8097 C.3     1  UNL1        0.0188
     18 C         143.1038  140.3325  166.2866 C.ar    1  UNL1        0.0106
     19 C         142.9268  139.2085  167.2641 C.ar    1  UNL1        0.0008
     20 C         142.6661  139.5068  168.7108 C.ar    1  UNL1        0.0000
     21 C         142.5824  140.9291  169.1801 C.ar    1  UNL1        0.0000
     22 C         142.7594  142.0530  168.2027 C.ar    1  UNL1        0.0000
     23 C         143.0201  141.7547  166.7559 C.ar    1  UNL1        0.0008
     24 C         140.8389  139.5376  164.4872 C.ar    1  UNL1        0.0008
     25 C         140.0308  140.7813  164.7110 C.ar    1  UNL1        0.0000
     26 C         138.6376  140.6822  165.2581 C.ar    1  UNL1        0.0000
     27 C         138.0526  139.3393  165.5812 C.ar    1  UNL1        0.0000
     28 C         138.8607  138.0956  165.3573 C.ar    1  UNL1        0.0000
     29 C         140.2538  138.1947  164.8103 C.ar    1  UNL1        0.0000
@<TRIPOS>BOND
     1    14    15    1
     2    15    13    1
     3    13    16    1
     4    16    17    1
     5    13    12    1
     6    12    11    1
     7    11    10    1
     8    10     4    1
     9     4     5   ar
    10     5     6   ar
    11     6     7   ar
    12     7     1    1
    13     1     2    2
    14     2     3    1
    15     2    18    1
    16    18    19   ar
    17    19    20   ar
    18    20    21   ar
    19    21    22   ar
    20    22    23   ar
    21     1    24    1
    22    24    25   ar
    23    25    26   ar
    24    26    27   ar
    25    27    28   ar
    26    28    29   ar
    27     7     8   ar
    28     8     9   ar
    29     9     4   ar
    30    23    18   ar
    31    29    24   ar
@<TRIPOS>MOLECULE
*****
 29 31 0 0 0
SMALL
GASTEIGER

@<TRIPOS>ATOM
      1 C         141.3422  141.0211  165.1111 C.2     1  UNL1        0.0106
      2 C         141.7615  140.5356  166.4670 C.2     1  UNL1        0.0576
      3 CL        142.8450  139.5059  166.5930 Cl      1  UNL1       -0.0822
      4 C         143.3348  139.3886  161.4213 C.ar    1  UNL1        0.1386
      5 C         143.9055  140.5916  162.1119 C.ar    1  UNL1        0.0369
      6 C         143.2413  141.1357  163.3418 C.ar    1  UNL1        0.0031
      7 C         142.0064  140.4769  163.8811 C.ar    1  UNL1        0.0010
      8 C         141.4357  139.2739  163.1905 C.ar    1  UNL1        0.0031
      9 C         142.0999  138.7298  161.9606 C.ar    1  UNL1        0.0369
     10 O         143.9990  138.8444  160.1913 O.3     1  UNL1       -0.4740
     11 C         143.2239  138.7197  158.9132 C.3     1  UNL1        0.2226
     12 C         142.6705  139.9455  158.2490 C.3     1  UNL1        0.1200
     13 N         141.3966  140.5593  158.7494 N.3     1  UNL1       -0.2696
     14 C         140.5459  141.9942  160.7413 C.3     1  UNL1        0.0188
     15 C         141.4386  141.8289  159.5472 C.3     1  UNL1        0.0722
     16 C         140.0807  139.9036  158.4520 C.3     1  UNL1        0.0722
     17 C         139.6331  138.7205  159.2582 C.3     1  UNL1        0.0188
     18 C         141.0973  141.0798  167.6969 C.ar    1  UNL1        0.0106
     19 C         140.0260  140.2860  168.3842 C.ar    1  UNL1        0.0008
     20 C         139.3618  140.8302  169.6141 C.ar    1  UNL1        0.0000
     21 C         139.7689  142.1681  170.1567 C.ar    1  UNL1        0.0000
     22 C         140.8402  142.9618  169.4694 C.ar    1  UNL1        0.0000
     23 C         141.5043  142.4176  168.2395 C.ar    1  UNL1        0.0008
     24 C         140.2587  142.0507  164.9851 C.ar    1  UNL1        0.0008
     25 C         138.8379  141.6216  164.7678 C.ar    1  UNL1        0.0000
     26 C         137.7544  142.6514  164.6419 C.ar    1  UNL1        0.0000
     27 C         138.0918  144.1101  164.7332 C.ar    1  UNL1        0.0000
     28 C         139.5126  144.5391  164.9505 C.ar    1  UNL1        0.0000
     29 C         140.5961  143.5095  165.0764 C.ar    1  UNL1        0.0000
@<TRIPOS>BOND
     1    14    15    1
     2    15    13    1
     3    13    16    1
     4    16    17    1
     5    13    12    1
     6    12    11    1
     7    11    10    1
     8    10     4    1
     9     4     5   ar
    10     5     6   ar
    11     6     7   ar
    12     7     1    1
    13     1     2    2
    14     2     3    1
    15     2    18    1
    16    18    19   ar
    17    19    20   ar
    18    20    21   ar
    19    21    22   ar
    20    22    23   ar
    21     1    24    1
    22    24    25   ar
    23    25    26   ar
    24    26    27   ar
    25    27    28   ar
    26    28    29   ar
    27     7     8   ar
    28     8     9   ar
    29     9     4   ar
    30    23    18   ar
    31    29    24   ar
@<TRIPOS>MOLECULE
*****
 29 31 0 0 0
SMALL
GASTEIGER

@<TRIPOS>ATOM
      1 C         142.0720  140.9779  165.4637 C.2     1  UNL1        0.0106
      2 C         142.4422  141.5500  166.7999 C.2     1  UNL1        0.0576
      3 CL        143.5523  142.5534  166.9047 Cl      1  UNL1       -0.0822
      4 C         144.2917  142.2714  161.7691 C.ar    1  UNL1        0.1386
      5 C         144.8120  141.1340  162.5970 C.ar    1  UNL1        0.0369
      6 C         144.0721  140.7028  163.8286 C.ar    1  UNL1        0.0031
      7 C         142.8119  141.4090  164.2322 C.ar    1  UNL1        0.0010
      8 C         142.2916  142.5465  163.4043 C.ar    1  UNL1        0.0031
      9 C         143.0314  142.9776  162.1728 C.ar    1  UNL1        0.0369
     10 O         145.0316  142.7026  160.5376 O.3     1  UNL1       -0.4740
     11 C         144.4712  142.3967  159.1803 C.3     1  UNL1        0.2226
     12 C         143.9065  141.0375  158.8910 C.3     1  UNL1        0.1200
     13 N         142.5328  140.6776  159.3745 N.3     1  UNL1       -0.2696
     14 C         140.4574  141.0584  157.8588 C.3     1  UNL1        0.0188
     15 C         141.3535  141.5128  158.9725 C.3     1  UNL1        0.0722
     16 C         142.3386  139.4825  160.2599 C.3     1  UNL1        0.0722
     17 C         141.3382  139.5310  161.3766 C.3     1  UNL1        0.0188
     18 C         141.7023  141.1188  168.0315 C.ar    1  UNL1        0.0106
     19 C         140.5377  141.9239  168.5272 C.ar    1  UNL1        0.0008
     20 C         139.7978  141.4927  169.7587 C.ar    1  UNL1        0.0000
     21 C         140.2225  140.2565  170.4945 C.ar    1  UNL1        0.0000
     22 C         141.3870  139.4514  169.9988 C.ar    1  UNL1        0.0000
     23 C         142.1269  139.8826  168.7673 C.ar    1  UNL1        0.0008
     24 C         140.9619  139.9745  165.3590 C.ar    1  UNL1        0.0008
     25 C         141.2775  138.5312  165.0999 C.ar    1  UNL1        0.0000
     26 C         140.1673  137.5278  164.9952 C.ar    1  UNL1        0.0000
     27 C         138.7416  137.9679  165.1496 C.ar    1  UNL1        0.0000
     28 C         138.4261  139.4112  165.4087 C.ar    1  UNL1        0.0000
     29 C         139.5362  140.4146  165.5134 C.ar    1  UNL1        0.0000
@<TRIPOS>BOND
     1    14    15    1
     2    15    13    1
     3    13    16    1
     4    16    17    1
     5    13    12    1
     6    12    11    1
     7    11    10    1
     8    10     4    1
     9     4     5   ar
    10     5     6   ar
    11     6     7   ar
    12     7     1    1
    13     1     2    2
    14     2     3    1
    15     2    18    1
    16    18    19   ar
    17    19    20   ar
    18    20    21   ar
    19    21    22   ar
    20    22    23   ar
    21     1    24    1
    22    24    25   ar
    23    25    26   ar
    24    26    27   ar
    25    27    28   ar
    26    28    29   ar
    27     7     8   ar
    28     8     9   ar
    29     9     4   ar
    30    23    18   ar
    31    29    24   ar
@<TRIPOS>MOLECULE
*****
 29 31 0 0 0
SMALL
GASTEIGER

@<TRIPOS>ATOM
      1 C         142.2484  139.6935  163.9801 C.2     1  UNL1        0.0106
      2 C         143.3756  140.0431  164.9058 C.2     1  UNL1        0.0576
      3 CL        144.7810  140.1076  164.3854 Cl      1  UNL1       -0.0822
      4 C         143.0826  138.8379  159.6417 C.ar    1  UNL1        0.1386
      5 C         143.0346  137.7126  160.6323 C.ar    1  UNL1        0.0369
      6 C         142.7565  137.9978  162.0784 C.ar    1  UNL1        0.0031
      7 C         142.5264  139.4083  162.5339 C.ar    1  UNL1        0.0010
      8 C         142.5745  140.5336  161.5433 C.ar    1  UNL1        0.0031
      9 C         142.8525  140.2484  160.0972 C.ar    1  UNL1        0.0369
     10 O         143.3606  138.5527  158.1955 O.3     1  UNL1       -0.4740
     11 C         142.2394  138.5666  157.1992 C.3     1  UNL1        0.2226
     12 C         140.9008  137.9995  157.5687 C.3     1  UNL1        0.1200
     13 N         139.9179  138.8347  158.3345 N.3     1  UNL1       -0.2696
     14 C         140.0631  141.3882  157.8781 C.3     1  UNL1        0.0188
     15 C         139.3498  140.0785  157.7178 C.3     1  UNL1        0.0722
     16 C         139.5031  138.4261  159.7168 C.3     1  UNL1        0.0722
     17 C         139.1619  139.4714  160.7372 C.3     1  UNL1        0.0188
     18 C         143.0975  140.3283  166.3520 C.ar    1  UNL1        0.0106
     19 C         142.8912  139.1957  167.3136 C.ar    1  UNL1        0.0008
     20 C         142.6132  139.4808  168.7597 C.ar    1  UNL1        0.0000
     21 C         142.5414  140.8987  169.2443 C.ar    1  UNL1        0.0000
     22 C         142.7477  142.0312  168.2827 C.ar    1  UNL1        0.0000
     23 C         143.0258  141.7460  166.8365 C.ar    1  UNL1        0.0008
     24 C         140.8430  139.6290  164.5005 C.ar    1  UNL1        0.0008
     25 C         140.0280  140.8829  164.6167 C.ar    1  UNL1        0.0000
     26 C         138.6226  140.8184  165.1371 C.ar    1  UNL1        0.0000
     27 C         138.0323  139.5001  165.5414 C.ar    1  UNL1        0.0000
     28 C         138.8473  138.2462  165.4252 C.ar    1  UNL1        0.0000
     29 C         140.2527  138.3106  164.9048 C.ar    1  UNL1        0.0000
@<TRIPOS>BOND
     1    14    15    1
     2    15    13    1
     3    13    16    1
     4    16    17    1
     5    13    12    1
     6    12    11    1
     7    11    10    1
     8    10     4    1
     9     4     5   ar
    10     5     6   ar
    11     6     7   ar
    12     7     1    1
    13     1     2    2
    14     2     3    1
    15     2    18    1
    16    18    19   ar
    17    19    20   ar
    18    20    21   ar
    19    21    22   ar
    20    22    23   ar
    21     1    24    1
    22    24    25   ar
    23    25    26   ar
    24    26    27   ar
    25    27    28   ar
    26    28    29   ar
    27     7     8   ar
    28     8     9   ar
    29     9     4   ar
    30    23    18   ar
    31    29    24   ar
@<TRIPOS>MOLECULE
*****
 29 31 0 0 0
SMALL
GASTEIGER

@<TRIPOS>ATOM
      1 C         140.6600  141.4258  165.7062 C.2     1  UNL1        0.0106
      2 C         140.3982  141.0865  167.1437 C.2     1  UNL1        0.0576
      3 CL        139.2968  140.1328  167.5007 Cl      1  UNL1       -0.0822
      4 C         138.1411  139.5826  162.4646 C.ar    1  UNL1        0.1386
      5 C         137.7115  140.8670  163.1093 C.ar    1  UNL1        0.0369
      6 C         138.5511  141.4814  164.1899 C.ar    1  UNL1        0.0031
      7 C         139.8204  140.8114  164.6257 C.ar    1  UNL1        0.0010
      8 C         140.2500  139.5270  163.9810 C.ar    1  UNL1        0.0031
      9 C         139.4104  138.9126  162.9005 C.ar    1  UNL1        0.0369
     10 O         137.3015  138.9682  161.3841 O.3     1  UNL1       -0.4740
     11 C         137.2497  139.5993  160.0243 C.3     1  UNL1        0.2226
     12 C         138.5221  139.9285  159.3013 C.3     1  UNL1        0.1200
     13 N         139.2495  141.2044  159.6063 N.3     1  UNL1       -0.2696
     14 C         140.9560  142.1604  161.3163 C.3     1  UNL1        0.0188
     15 C         140.6007  141.1605  160.2560 C.3     1  UNL1        0.0722
     16 C         138.6255  142.5242  159.2615 C.3     1  UNL1        0.0722
     17 C         139.1138  143.2968  158.0721 C.3     1  UNL1        0.0188
     18 C         141.2379  141.7009  168.2242 C.ar    1  UNL1        0.0106
     19 C         140.7994  142.9763  168.8809 C.ar    1  UNL1        0.0008
     20 C         141.6390  143.5907  169.9614 C.ar    1  UNL1        0.0000
     21 C         142.9171  142.9297  170.3853 C.ar    1  UNL1        0.0000
     22 C         143.3555  141.6543  169.7287 C.ar    1  UNL1        0.0000
     23 C         142.5159  141.0399  168.6481 C.ar    1  UNL1        0.0008
     24 C         141.7614  142.3794  165.3493 C.ar    1  UNL1        0.0008
     25 C         141.4326  143.7138  164.7483 C.ar    1  UNL1        0.0000
     26 C         142.5341  144.6675  164.3914 C.ar    1  UNL1        0.0000
     27 C         143.9643  144.2867  164.6355 C.ar    1  UNL1        0.0000
     28 C         144.2930  142.9523  165.2365 C.ar    1  UNL1        0.0000
     29 C         143.1916  141.9987  165.5934 C.ar    1  UNL1        0.0000
@<TRIPOS>BOND
     1    14    15    1
     2    15    13    1
     3    13    16    1
     4    16    17    1
     5    13    12    1
     6    12    11    1
     7    11    10    1
     8    10     4    1
     9     4     5   ar
    10     5     6   ar
    11     6     7   ar
    12     7     1    1
    13     1     2    2
    14     2     3    1
    15     2    18    1
    16    18    19   ar
    17    19    20   ar
    18    20    21   ar
    19    21    22   ar
    20    22    23   ar
    21     1    24    1
    22    24    25   ar
    23    25    26   ar
    24    26    27   ar
    25    27    28   ar
    26    28    29   ar
    27     7     8   ar
    28     8     9   ar
    29     9     4   ar
    30    23    18   ar
    31    29    24   ar
@<TRIPOS>MOLECULE
*****
 29 31 0 0 0
SMALL
GASTEIGER

@<TRIPOS>ATOM
      1 C         141.0396  140.5879  164.9853 C.2     1  UNL1        0.0106
      2 C         141.4628  140.0955  166.3375 C.2     1  UNL1        0.0576
      3 CL        142.4074  138.9358  166.4515 Cl      1  UNL1       -0.0822
      4 C         142.6033  138.5862  161.2708 C.ar    1  UNL1        0.1386
      5 C         143.3386  139.7532  161.8600 C.ar    1  UNL1        0.0369
      6 C         142.8174  140.4204  163.0982 C.ar    1  UNL1        0.0031
      7 C         141.5608  139.9207  163.7472 C.ar    1  UNL1        0.0010
      8 C         140.8255  138.7536  163.1579 C.ar    1  UNL1        0.0031
      9 C         141.3467  138.0864  161.9197 C.ar    1  UNL1        0.0369
     10 O         143.1246  137.9189  160.0326 O.3     1  UNL1       -0.4740
     11 C         142.7946  138.4815  158.6819 C.3     1  UNL1        0.2226
     12 C         141.6264  137.9432  157.9102 C.3     1  UNL1        0.1200
     13 N         141.8338  136.8579  156.8956 N.3     1  UNL1       -0.2696
     14 C         143.7766  135.5822  155.7347 C.3     1  UNL1        0.0188
     15 C         143.0401  135.9707  156.9823 C.3     1  UNL1        0.0722
     16 C         140.8348  136.6600  155.7943 C.3     1  UNL1        0.0722
     17 C         139.4451  137.2069  155.9351 C.3     1  UNL1        0.0188
     18 C         140.9416  140.7628  167.5756 C.ar    1  UNL1        0.0106
     19 C         141.5504  142.0502  168.0467 C.ar    1  UNL1        0.0008
     20 C         141.0292  142.7175  169.2849 C.ar    1  UNL1        0.0000
     21 C         139.8991  142.0973  170.0520 C.ar    1  UNL1        0.0000
     22 C         139.2903  140.8099  169.5809 C.ar    1  UNL1        0.0000
     23 C         139.8116  140.1426  168.3427 C.ar    1  UNL1        0.0008
     24 C         140.0951  141.7476  164.8714 C.ar    1  UNL1        0.0008
     25 C         138.6222  141.5038  164.7253 C.ar    1  UNL1        0.0000
     26 C         137.6777  142.6635  164.6113 C.ar    1  UNL1        0.0000
     27 C         138.2060  144.0670  164.6434 C.ar    1  UNL1        0.0000
     28 C         139.6788  144.3108  164.7895 C.ar    1  UNL1        0.0000
     29 C         140.6234  143.1512  164.9034 C.ar    1  UNL1        0.0000
@<TRIPOS>BOND
     1    14    15    1
     2    15    13    1
     3    13    16    1
     4    16    17    1
     5    13    12    1
     6    12    11    1
     7    11    10    1
     8    10     4    1
     9     4     5   ar
    10     5     6   ar
    11     6     7   ar
    12     7     1    1
    13     1     2    2
    14     2     3    1
    15     2    18    1
    16    18    19   ar
    17    19    20   ar
    18    20    21   ar
    19    21    22   ar
    20    22    23   ar
    21     1    24    1
    22    24    25   ar
    23    25    26   ar
    24    26    27   ar
    25    27    28   ar
    26    28    29   ar
    27     7     8   ar
    28     8     9   ar
    29     9     4   ar
    30    23    18   ar
    31    29    24   ar
