@<TRIPOS>MOLECULE
*****
 30 35 0 0 0
SMALL
GASTEIGER

@<TRIPOS>ATOM
      1 C         138.4292  142.9841  162.4047 C.3     1  UNL1        0.0181
      2 C         138.5151  142.4735  160.9968 C.3     1  UNL1        0.0036
      3 C         138.7944  142.2063  159.5475 C.3     1  UNL1        0.0227
      4 C         139.7377  143.2634  159.0547 C.3     1  UNL1        0.0870
      5 C         140.0413  144.1839  160.1994 C.3     1  UNL1        0.0227
      6 C         139.2857  143.6958  161.3998 C.3     1  UNL1        0.0036
      7 N         140.2818  143.3795  157.6617 N.ar    1  UNL1       -0.3109
      8 C         141.0155  142.3090  156.9096 C.ar    1  UNL1        0.1785
      9 N         141.3748  142.8545  155.5593 N.ar    1  UNL1       -0.2239
     10 C         140.8633  144.2621  155.4769 C.ar    1  UNL1        0.1011
     11 C         140.9253  145.2903  154.3865 C.ar    1  UNL1        0.0526
     12 C         140.3118  146.6431  154.5955 C.ar    1  UNL1        0.1690
     13 F         140.3738  147.6713  153.5051 F       1  UNL1       -0.2017
     14 C         139.6362  146.9676  155.8948 C.ar    1  UNL1        0.1689
     15 F         139.0227  148.3203  156.1038 F       1  UNL1       -0.2017
     16 C         139.5742  145.9394  156.9852 C.ar    1  UNL1        0.0507
     17 C         140.1877  144.5866  156.7762 C.ar    1  UNL1        0.0813
     18 C         137.8850  142.8679  163.7976 C.3     1  UNL1        0.0715
     19 N         137.5789  141.5168  164.3729 N.am    1  UNL1       -0.3060
     20 C         138.6322  140.7708  165.1371 C.2     1  UNL1        0.2217
     21 O         139.9917  141.3759  165.3261 O.2     1  UNL1       -0.2751
     22 H         136.6866  141.1196  164.2489 H       1  UNL1        0.1494
     23 C         138.3261  139.4197  165.7124 C.3     1  UNL1        0.0764
     24 C         137.6436  138.9251  166.9532 C.3     1  UNL1        0.0414
     25 C         137.8932  137.5091  166.5260 C.3     1  UNL1        0.1352
     26 F         137.5871  136.1581  167.1013 F       1  UNL1       -0.2400
     27 C         138.5757  138.0037  165.2852 C.3     1  UNL1        0.0414
     28 C         137.9605  138.6118  166.3860 C.3     1  UNL1        0.0414
     29 C         138.8046  144.8227  165.2409 C.3     1  UNL1        0.0017
     30 C         137.6469  144.1026  164.6154 C.3     1  UNL1        0.0196
@<TRIPOS>BOND
     1    29    30    1
     2    18    30    1
     3    18    19    1
     4    19    20   am
     5    20    21    2
     6    20    23    1
     7    23    24    1
     8    24    25    1
     9    25    26    1
    10    25    27    1
    11    25    28    1
    12     1    18    1
    13     1     2    1
    14     2     3    1
    15     3     4    1
    16     4     7    1
    17     7     8   ar
    18     8     9   ar
    19     9    10   ar
    20    10    11   ar
    21    11    12   ar
    22    12    13    1
    23    12    14   ar
    24    14    15    1
    25    14    16   ar
    26    16    17   ar
    27     4     5    1
    28     6     5    1
    29    27    23    1
    30     6     1    1
    31    28    23    1
    32     6     2    1
    33    17     7   ar
    34    17    10   ar
    35    19    22    1
@<TRIPOS>MOLECULE
*****
 30 35 0 0 0
SMALL
GASTEIGER

@<TRIPOS>ATOM
      1 C         138.6144  140.0485  165.0924 C.3     1  UNL1        0.0181
      2 C         138.9857  139.7490  163.6702 C.3     1  UNL1        0.0036
      3 C         139.1778  139.6988  162.1834 C.3     1  UNL1        0.0227
      4 C         138.3989  140.8281  161.5769 C.3     1  UNL1        0.0870
      5 C         137.7253  141.5764  162.6889 C.3     1  UNL1        0.0227
      6 C         138.0880  140.9095  163.9827 C.3     1  UNL1        0.0036
      7 N         138.3093  141.1523  160.1151 N.ar    1  UNL1       -0.3109
      8 C         137.5974  140.3404  159.0740 C.ar    1  UNL1        0.1785
      9 N         137.7640  141.0316  157.7532 N.ar    1  UNL1       -0.2239
     10 C         138.5789  142.2708  157.9781 C.ar    1  UNL1        0.1011
     11 C         139.0576  143.3408  157.0422 C.ar    1  UNL1        0.0526
     12 C         139.8733  144.4855  157.5661 C.ar    1  UNL1        0.1690
     13 F         140.3519  145.5555  156.6302 F       1  UNL1       -0.2017
     14 C         140.2103  144.5601  159.0259 C.ar    1  UNL1        0.1689
     15 F         141.0259  145.7047  159.5497 F       1  UNL1       -0.2017
     16 C         139.7316  143.4900  159.9617 C.ar    1  UNL1        0.0507
     17 C         138.9159  142.3454  159.4378 C.ar    1  UNL1        0.0813
     18 C         138.7041  139.7243  166.5542 C.3     1  UNL1        0.0715
     19 N         139.6815  140.4555  167.4260 N.am    1  UNL1       -0.3060
     20 C         141.1530  140.2078  167.2746 C.2     1  UNL1        0.2217
     21 O         141.6474  139.2287  166.2513 O.2     1  UNL1       -0.2751
     22 H         139.3571  141.0981  168.0976 H       1  UNL1        0.1494
     23 C         142.1304  140.9390  168.1464 C.3     1  UNL1        0.0764
     24 C         142.9209  142.2076  168.0210 C.3     1  UNL1        0.0414
     25 C         143.5126  141.9732  169.3793 C.3     1  UNL1        0.1352
     26 F         144.4899  142.7044  170.2510 F       1  UNL1       -0.2400
     27 C         142.7221  140.7046  169.5047 C.3     1  UNL1        0.0414
     28 C         142.8533  141.6965  168.5255 C.3     1  UNL1        0.0414
     29 C         137.7677  137.3009  166.5306 C.3     1  UNL1        0.0017
     30 C         137.8165  138.6688  167.1442 C.3     1  UNL1        0.0196
@<TRIPOS>BOND
     1    29    30    1
     2    18    30    1
     3    18    19    1
     4    19    20   am
     5    20    21    2
     6    20    23    1
     7    23    24    1
     8    24    25    1
     9    25    26    1
    10    25    27    1
    11    25    28    1
    12     1    18    1
    13     1     2    1
    14     2     3    1
    15     3     4    1
    16     4     7    1
    17     7     8   ar
    18     8     9   ar
    19     9    10   ar
    20    10    11   ar
    21    11    12   ar
    22    12    13    1
    23    12    14   ar
    24    14    15    1
    25    14    16   ar
    26    16    17   ar
    27     4     5    1
    28     6     5    1
    29    27    23    1
    30     6     1    1
    31    28    23    1
    32     6     2    1
    33    17     7   ar
    34    17    10   ar
    35    19    22    1
@<TRIPOS>MOLECULE
*****
 30 35 0 0 0
SMALL
GASTEIGER

@<TRIPOS>ATOM
      1 C         140.3436  144.8927  158.1404 C.3     1  UNL1        0.0181
      2 C         139.6113  143.7975  158.8577 C.3     1  UNL1        0.0036
      3 C         138.9649  142.8588  159.8329 C.3     1  UNL1        0.0227
      4 C         139.2226  143.3779  161.2164 C.3     1  UNL1        0.0870
      5 C         140.0283  144.6375  161.0963 C.3     1  UNL1        0.0227
      6 C         140.2685  144.8968  159.6385 C.3     1  UNL1        0.0036
      7 N         138.7565  142.7480  162.4954 N.ar    1  UNL1       -0.3109
      8 C         138.0611  143.4520  163.6227 C.ar    1  UNL1        0.1785
      9 N         137.7788  142.4426  164.6957 N.ar    1  UNL1       -0.2239
     10 C         138.2996  141.1147  164.2316 C.ar    1  UNL1        0.1011
     11 C         138.3017  139.7581  164.8715 C.ar    1  UNL1        0.0526
     12 C         138.9081  138.5901  164.1515 C.ar    1  UNL1        0.1690
     13 F         138.9102  137.2335  164.7914 F       1  UNL1       -0.2017
     14 C         139.5124  138.7789  162.7917 C.ar    1  UNL1        0.1689
     15 F         140.1188  137.6110  162.0717 F       1  UNL1       -0.2017
     16 C         139.5103  140.1356  162.1517 C.ar    1  UNL1        0.0507
     17 C         138.9039  141.3034  162.8717 C.ar    1  UNL1        0.0813
     18 C         140.8097  145.5225  156.8614 C.3     1  UNL1        0.0715
     19 N         140.5246  146.9701  156.5908 N.am    1  UNL1       -0.3060
     20 C         139.2668  147.3660  155.8760 C.2     1  UNL1        0.2217
     21 O         138.2939  146.3144  155.4318 O.2     1  UNL1       -0.2751
     22 H         141.1632  147.6604  156.8823 H       1  UNL1        0.1494
     23 C         138.9818  148.8137  155.6054 C.3     1  UNL1        0.0764
     24 C         138.2121  149.8925  156.3081 C.3     1  UNL1        0.0414
     25 C         138.5786  150.8608  155.2229 C.3     1  UNL1        0.1352
     26 F         138.2936  152.3084  154.9524 F       1  UNL1       -0.2400
     27 C         139.3483  149.7821  154.5202 C.3     1  UNL1        0.0414
     28 C         138.5984  149.8549  155.7002 C.3     1  UNL1        0.0414
     29 C         140.9319  143.4764  155.2649 C.3     1  UNL1        0.0017
     30 C         141.5608  144.7048  155.8528 C.3     1  UNL1        0.0196
@<TRIPOS>BOND
     1    29    30    1
     2    18    30    1
     3    18    19    1
     4    19    20   am
     5    20    21    2
     6    20    23    1
     7    23    24    1
     8    24    25    1
     9    25    26    1
    10    25    27    1
    11    25    28    1
    12     1    18    1
    13     1     2    1
    14     2     3    1
    15     3     4    1
    16     4     7    1
    17     7     8   ar
    18     8     9   ar
    19     9    10   ar
    20    10    11   ar
    21    11    12   ar
    22    12    13    1
    23    12    14   ar
    24    14    15    1
    25    14    16   ar
    26    16    17   ar
    27     4     5    1
    28     6     5    1
    29    27    23    1
    30     6     1    1
    31    28    23    1
    32     6     2    1
    33    17     7   ar
    34    17    10   ar
    35    19    22    1
@<TRIPOS>MOLECULE
*****
 30 35 0 0 0
SMALL
GASTEIGER

@<TRIPOS>ATOM
      1 C         140.3831  145.0261  158.3553 C.3     1  UNL1        0.0181
      2 C         140.0845  143.8678  159.2606 C.3     1  UNL1        0.0036
      3 C         139.8174  142.9223  160.3941 C.3     1  UNL1        0.0227
      4 C         139.9056  143.6978  161.6751 C.3     1  UNL1        0.0870
      5 C         140.2273  145.1225  161.3333 C.3     1  UNL1        0.0227
      6 C         140.3378  145.2276  159.8410 C.3     1  UNL1        0.0036
      7 N         139.7071  143.1454  163.0555 N.ar    1  UNL1       -0.3109
      8 C         138.4035  142.6967  163.6465 C.ar    1  UNL1        0.1785
      9 N         138.6681  142.2188  165.0435 N.ar    1  UNL1       -0.2239
     10 C         140.1352  142.3721  165.3158 C.ar    1  UNL1        0.1011
     11 C         140.9693  142.0643  166.5239 C.ar    1  UNL1        0.0526
     12 C         142.4456  142.3291  166.5033 C.ar    1  UNL1        0.1690
     13 F         143.2797  142.0212  167.7114 F       1  UNL1       -0.2017
     14 C         143.0878  142.9018  165.2746 C.ar    1  UNL1        0.1689
     15 F         144.5640  143.1666  165.2540 F       1  UNL1       -0.2017
     16 C         142.2536  143.2097  164.0665 C.ar    1  UNL1        0.0507
     17 C         140.7773  142.9448  164.0872 C.ar    1  UNL1        0.0813
     18 C         140.5816  145.5783  156.9749 C.3     1  UNL1        0.0715
     19 N         140.3393  147.0343  156.7076 N.am    1  UNL1       -0.3060
     20 C         139.1506  147.4605  155.8983 C.2     1  UNL1        0.2217
     21 O         138.2041  146.4308  155.3562 O.2     1  UNL1       -0.2751
     22 H         140.9605  147.7101  157.0634 H       1  UNL1        0.1494
     23 C         138.9082  148.9165  155.6309 C.3     1  UNL1        0.0764
     24 C         138.1878  150.0206  156.3463 C.3     1  UNL1        0.0414
     25 C         138.5654  150.9755  155.2529 C.3     1  UNL1        0.1352
     26 F         138.3231  152.4314  154.9857 F       1  UNL1       -0.2400
     27 C         139.2859  149.8714  154.5375 C.3     1  UNL1        0.0414
     28 C         138.5612  149.9699  155.7313 C.3     1  UNL1        0.0414
     29 C         142.0335  145.1538  154.8626 C.3     1  UNL1        0.0017
     30 C         141.0225  144.6747  155.8618 C.3     1  UNL1        0.0196
@<TRIPOS>BOND
     1    29    30    1
     2    18    30    1
     3    18    19    1
     4    19    20   am
     5    20    21    2
     6    20    23    1
     7    23    24    1
     8    24    25    1
     9    25    26    1
    10    25    27    1
    11    25    28    1
    12     1    18    1
    13     1     2    1
    14     2     3    1
    15     3     4    1
    16     4     7    1
    17     7     8   ar
    18     8     9   ar
    19     9    10   ar
    20    10    11   ar
    21    11    12   ar
    22    12    13    1
    23    12    14   ar
    24    14    15    1
    25    14    16   ar
    26    16    17   ar
    27     4     5    1
    28     6     5    1
    29    27    23    1
    30     6     1    1
    31    28    23    1
    32     6     2    1
    33    17     7   ar
    34    17    10   ar
    35    19    22    1
@<TRIPOS>MOLECULE
*****
 30 35 0 0 0
SMALL
GASTEIGER

@<TRIPOS>ATOM
      1 C         140.6339  139.6843  159.4802 C.3     1  UNL1        0.0181
      2 C         140.1154  138.6959  158.4779 C.3     1  UNL1        0.0036
      3 C         139.9005  137.6420  157.4325 C.3     1  UNL1        0.0227
      4 C         141.2442  137.1215  157.0160 C.3     1  UNL1        0.0870
      5 C         142.2896  137.8537  157.8040 C.3     1  UNL1        0.0227
      6 C         141.5919  138.8268  158.7076 C.3     1  UNL1        0.0036
      7 N         141.4979  136.0558  155.9913 N.ar    1  UNL1       -0.3109
      8 C         140.8464  135.9552  154.6439 C.ar    1  UNL1        0.1785
      9 N         141.3936  134.7408  153.9541 N.ar    1  UNL1       -0.2239
     10 C         142.3832  134.0909  154.8751 C.ar    1  UNL1        0.1011
     11 C         143.2340  132.8641  154.7299 C.ar    1  UNL1        0.0526
     12 C         144.1493  132.4499  155.8438 C.ar    1  UNL1        0.1690
     13 F         145.0000  131.2231  155.6986 F       1  UNL1       -0.2017
     14 C         144.2137  133.2626  157.1029 C.ar    1  UNL1        0.1689
     15 F         145.1290  132.8485  158.2168 F       1  UNL1       -0.2017
     16 C         143.3629  134.4895  157.2481 C.ar    1  UNL1        0.0507
     17 C         142.4477  134.9036  156.1342 C.ar    1  UNL1        0.0813
     18 C         140.3801  140.7499  160.5048 C.3     1  UNL1        0.0715
     19 N         140.1807  140.3748  161.9434 N.am    1  UNL1       -0.3060
     20 C         138.8085  140.0397  162.4479 C.2     1  UNL1        0.2217
     21 O         137.6355  140.0797  161.5139 O.2     1  UNL1       -0.2751
     22 H         140.9506  140.3486  162.5565 H       1  UNL1        0.1494
     23 C         138.6092  139.6646  163.8866 C.3     1  UNL1        0.0764
     24 C         138.7697  138.4060  164.6865 C.3     1  UNL1        0.0414
     25 C         138.3273  139.1341  165.9210 C.3     1  UNL1        0.1352
     26 F         138.1279  138.7590  167.3596 F       1  UNL1       -0.2400
     27 C         138.1668  140.3928  165.1211 C.3     1  UNL1        0.0414
     28 C         138.5647  139.0815  164.8343 C.3     1  UNL1        0.0414
     29 C         139.0892  142.7382  159.4415 C.3     1  UNL1        0.0017
     30 C         140.3255  142.1907  160.0910 C.3     1  UNL1        0.0196
@<TRIPOS>BOND
     1    29    30    1
     2    18    30    1
     3    18    19    1
     4    19    20   am
     5    20    21    2
     6    20    23    1
     7    23    24    1
     8    24    25    1
     9    25    26    1
    10    25    27    1
    11    25    28    1
    12     1    18    1
    13     1     2    1
    14     2     3    1
    15     3     4    1
    16     4     7    1
    17     7     8   ar
    18     8     9   ar
    19     9    10   ar
    20    10    11   ar
    21    11    12   ar
    22    12    13    1
    23    12    14   ar
    24    14    15    1
    25    14    16   ar
    26    16    17   ar
    27     4     5    1
    28     6     5    1
    29    27    23    1
    30     6     1    1
    31    28    23    1
    32     6     2    1
    33    17     7   ar
    34    17    10   ar
    35    19    22    1
@<TRIPOS>MOLECULE
*****
 30 35 0 0 0
SMALL
GASTEIGER

@<TRIPOS>ATOM
      1 C         140.5868  137.9993  157.7425 C.3     1  UNL1        0.0181
      2 C         141.1805  138.8424  158.8319 C.3     1  UNL1        0.0036
      3 C         141.4843  139.6769  160.0408 C.3     1  UNL1        0.0227
      4 C         140.2221  139.8118  160.8400 C.3     1  UNL1        0.0870
      5 C         139.1382  139.0607  160.1251 C.3     1  UNL1        0.0227
      6 C         139.7305  138.4616  158.8839 C.3     1  UNL1        0.0036
      7 N         140.0704  140.5655  162.1280 N.ar    1  UNL1       -0.3109
      8 C         140.3268  142.0299  162.3281 C.ar    1  UNL1        0.1785
      9 N         140.0506  142.3565  163.7658 N.ar    1  UNL1       -0.2239
     10 C         139.6236  141.0941  164.4542 C.ar    1  UNL1        0.1011
     11 C         139.2252  140.8095  165.8720 C.ar    1  UNL1        0.0526
     12 C         138.8390  139.4179  166.2777 C.ar    1  UNL1        0.1690
     13 F         138.4406  139.1333  167.6955 F       1  UNL1       -0.2017
     14 C         138.8513  138.3110  165.2654 C.ar    1  UNL1        0.1689
     15 F         138.4652  136.9195  165.6710 F       1  UNL1       -0.2017
     16 C         139.2497  138.5957  163.8476 C.ar    1  UNL1        0.0507
     17 C         139.6359  139.9872  163.4420 C.ar    1  UNL1        0.0813
     18 C         140.7386  137.2456  156.4545 C.3     1  UNL1        0.0715
     19 N         141.3643  135.8823  156.4525 N.am    1  UNL1       -0.3060
     20 C         142.8576  135.7424  156.4635 C.2     1  UNL1        0.2217
     21 O         143.7254  136.9658  156.4763 O.2     1  UNL1       -0.2751
     22 H         140.7947  135.0793  156.4441 H       1  UNL1        0.1494
     23 C         143.4833  134.3791  156.4615 C.3     1  UNL1        0.0764
     24 C         144.1273  133.5062  157.4975 C.3     1  UNL1        0.0414
     25 C         144.3681  132.4512  156.4588 C.3     1  UNL1        0.1352
     26 F         144.9938  131.0879  156.4569 F       1  UNL1       -0.2400
     27 C         143.7241  133.3240  155.4229 C.3     1  UNL1        0.0414
     28 C         143.9902  133.4443  156.7921 C.3     1  UNL1        0.0414
     29 C         139.0133  137.3486  154.5147 C.3     1  UNL1        0.0017
     30 C         140.2647  137.8551  155.1684 C.3     1  UNL1        0.0196
@<TRIPOS>BOND
     1    29    30    1
     2    18    30    1
     3    18    19    1
     4    19    20   am
     5    20    21    2
     6    20    23    1
     7    23    24    1
     8    24    25    1
     9    25    26    1
    10    25    27    1
    11    25    28    1
    12     1    18    1
    13     1     2    1
    14     2     3    1
    15     3     4    1
    16     4     7    1
    17     7     8   ar
    18     8     9   ar
    19     9    10   ar
    20    10    11   ar
    21    11    12   ar
    22    12    13    1
    23    12    14   ar
    24    14    15    1
    25    14    16   ar
    26    16    17   ar
    27     4     5    1
    28     6     5    1
    29    27    23    1
    30     6     1    1
    31    28    23    1
    32     6     2    1
    33    17     7   ar
    34    17    10   ar
    35    19    22    1
@<TRIPOS>MOLECULE
*****
 30 35 0 0 0
SMALL
GASTEIGER

@<TRIPOS>ATOM
      1 C         142.6480  141.9978  163.4831 C.3     1  UNL1        0.0181
      2 C         142.8867  141.5359  162.0760 C.3     1  UNL1        0.0036
      3 C         143.0815  141.3761  160.5974 C.3     1  UNL1        0.0227
      4 C         142.9218  142.7248  159.9604 C.3     1  UNL1        0.0870
      5 C         142.6283  143.7180  161.0454 C.3     1  UNL1        0.0227
      6 C         142.6066  142.9833  162.3531 C.3     1  UNL1        0.0036
      7 N         143.0357  143.0271  158.4956 N.ar    1  UNL1       -0.3109
      8 C         143.9365  142.3307  157.5191 C.ar    1  UNL1        0.1785
      9 N         143.7262  142.9521  156.1701 N.ar    1  UNL1       -0.2239
     10 C         142.6955  144.0324  156.3130 C.ar    1  UNL1        0.1011
     11 C         142.0904  144.9800  155.3200 C.ar    1  UNL1        0.0526
     12 C         141.0585  145.9739  155.7643 C.ar    1  UNL1        0.1690
     13 F         140.4534  146.9214  154.7713 F       1  UNL1       -0.2017
     14 C         140.6317  146.0203  157.2015 C.ar    1  UNL1        0.1689
     15 F         139.5998  147.0141  157.6458 F       1  UNL1       -0.2017
     16 C         141.2368  145.0727  158.1945 C.ar    1  UNL1        0.0507
     17 C         142.2687  144.0788  157.7502 C.ar    1  UNL1        0.0813
     18 C         142.5342  141.6954  164.9479 C.3     1  UNL1        0.0715
     19 N         141.5469  140.6732  165.4281 N.am    1  UNL1       -0.3060
     20 C         140.1696  141.0978  165.8434 C.2     1  UNL1        0.2217
     21 O         139.7794  142.5447  165.7784 O.2     1  UNL1       -0.2751
     22 H         141.8031  139.7235  165.4708 H       1  UNL1        0.1494
     23 C         139.1824  140.0756  166.3237 C.3     1  UNL1        0.0764
     24 C         138.1669  139.1903  165.6644 C.3     1  UNL1        0.0414
     25 C         137.7863  138.6301  167.0027 C.3     1  UNL1        0.1352
     26 F         136.7992  137.6079  167.4829 F       1  UNL1       -0.2400
     27 C         138.8019  139.5154  167.6620 C.3     1  UNL1        0.0414
     28 C         138.3828  139.3008  166.3436 C.3     1  UNL1        0.0414
     29 C         144.4401  143.3889  165.4474 C.3     1  UNL1        0.0017
     30 C         143.4074  142.4151  165.9325 C.3     1  UNL1        0.0196
@<TRIPOS>BOND
     1    29    30    1
     2    18    30    1
     3    18    19    1
     4    19    20   am
     5    20    21    2
     6    20    23    1
     7    23    24    1
     8    24    25    1
     9    25    26    1
    10    25    27    1
    11    25    28    1
    12     1    18    1
    13     1     2    1
    14     2     3    1
    15     3     4    1
    16     4     7    1
    17     7     8   ar
    18     8     9   ar
    19     9    10   ar
    20    10    11   ar
    21    11    12   ar
    22    12    13    1
    23    12    14   ar
    24    14    15    1
    25    14    16   ar
    26    16    17   ar
    27     4     5    1
    28     6     5    1
    29    27    23    1
    30     6     1    1
    31    28    23    1
    32     6     2    1
    33    17     7   ar
    34    17    10   ar
    35    19    22    1
@<TRIPOS>MOLECULE
*****
 30 35 0 0 0
SMALL
GASTEIGER

@<TRIPOS>ATOM
      1 C         143.4699  139.1520  162.4713 C.3     1  UNL1        0.0181
      2 C         143.0214  139.5268  161.0898 C.3     1  UNL1        0.0036
      3 C         142.5868  139.5929  159.6556 C.3     1  UNL1        0.0227
      4 C         142.5598  138.1941  159.1146 C.3     1  UNL1        0.0870
      5 C         142.9776  137.2635  160.2144 C.3     1  UNL1        0.0227
      6 C         143.2629  138.0872  161.4352 C.3     1  UNL1        0.0036
      7 N         142.1813  137.7958  157.7189 N.ar    1  UNL1       -0.3109
      8 C         141.3638  138.6102  156.7606 C.ar    1  UNL1        0.1785
      9 N         141.2312  137.8309  155.4859 N.ar    1  UNL1       -0.2239
     10 C         141.9668  136.5348  155.6562 C.ar    1  UNL1        0.1011
     11 C         142.1778  135.3716  154.7330 C.ar    1  UNL1        0.0526
     12 C         142.9761  134.1866  155.1899 C.ar    1  UNL1        0.1690
     13 F         143.1871  133.0234  154.2667 F       1  UNL1       -0.2017
     14 C         143.5633  134.1649  156.5700 C.ar    1  UNL1        0.1689
     15 F         144.3616  132.9800  157.0269 F       1  UNL1       -0.2017
     16 C         143.3523  135.3282  157.4932 C.ar    1  UNL1        0.0507
     17 C         142.5541  136.5131  157.0363 C.ar    1  UNL1        0.0813
     18 C         143.8483  139.5503  163.8670 C.3     1  UNL1        0.0715
     19 N         142.8673  139.3768  164.9885 N.am    1  UNL1       -0.3060
     20 C         141.9143  140.4837  165.3293 C.2     1  UNL1        0.2217
     21 O         141.9420  141.7643  164.5487 O.2     1  UNL1       -0.2751
     22 H         142.8491  138.5363  165.5008 H       1  UNL1        0.1494
     23 C         140.9333  140.3101  166.4509 C.3     1  UNL1        0.0764
     24 C         139.5236  139.8092  166.5589 C.3     1  UNL1        0.0414
     25 C         139.5461  140.0647  168.0368 C.3     1  UNL1        0.1352
     26 F         138.5652  139.8911  169.1582 F       1  UNL1       -0.2400
     27 C         140.9558  140.5656  167.9287 C.3     1  UNL1        0.0414
     28 C         140.0106  140.0664  167.0246 C.3     1  UNL1        0.0414
     29 C         145.5792  141.4685  163.5941 C.3     1  UNL1        0.0017
     30 C         145.2075  140.1223  164.1413 C.3     1  UNL1        0.0196
@<TRIPOS>BOND
     1    29    30    1
     2    18    30    1
     3    18    19    1
     4    19    20   am
     5    20    21    2
     6    20    23    1
     7    23    24    1
     8    24    25    1
     9    25    26    1
    10    25    27    1
    11    25    28    1
    12     1    18    1
    13     1     2    1
    14     2     3    1
    15     3     4    1
    16     4     7    1
    17     7     8   ar
    18     8     9   ar
    19     9    10   ar
    20    10    11   ar
    21    11    12   ar
    22    12    13    1
    23    12    14   ar
    24    14    15    1
    25    14    16   ar
    26    16    17   ar
    27     4     5    1
    28     6     5    1
    29    27    23    1
    30     6     1    1
    31    28    23    1
    32     6     2    1
    33    17     7   ar
    34    17    10   ar
    35    19    22    1
@<TRIPOS>MOLECULE
*****
 30 35 0 0 0
SMALL
GASTEIGER

@<TRIPOS>ATOM
      1 C         142.7039  138.9648  162.0233 C.3     1  UNL1        0.0181
      2 C         142.4136  139.2643  160.5824 C.3     1  UNL1        0.0036
      3 C         142.2149  139.2674  159.0956 C.3     1  UNL1        0.0227
      4 C         142.5922  137.9123  158.5747 C.3     1  UNL1        0.0870
      5 C         143.0242  137.0717  159.7395 C.3     1  UNL1        0.0227
      6 C         142.9138  137.9073  160.9804 C.3     1  UNL1        0.0036
      7 N         142.5458  137.4746  157.1407 N.ar    1  UNL1       -0.3109
      8 C         142.2554  138.3528  155.9599 C.ar    1  UNL1        0.1785
      9 N         142.3117  137.5029  154.7252 N.ar    1  UNL1       -0.2239
     10 C         142.6369  136.0994  155.1430 C.ar    1  UNL1        0.1011
     11 C         142.8200  134.8351  154.3569 C.ar    1  UNL1        0.0526
     12 C         143.1478  133.5533  155.0637 C.ar    1  UNL1        0.1690
     13 F         143.3308  132.2890  154.2776 F       1  UNL1       -0.2017
     14 C         143.2924  133.5358  156.5566 C.ar    1  UNL1        0.1689
     15 F         143.6202  132.2541  157.2634 F       1  UNL1       -0.2017
     16 C         143.1093  134.8002  157.3427 C.ar    1  UNL1        0.0507
     17 C         142.7816  136.0820  156.6359 C.ar    1  UNL1        0.0813
     18 C         142.7503  139.4025  163.4572 C.3     1  UNL1        0.0715
     19 N         141.7119  138.9155  164.4240 N.am    1  UNL1       -0.3060
     20 C         140.3090  139.4402  164.3452 C.2     1  UNL1        0.2217
     21 O         139.9443  140.4519  163.2996 O.2     1  UNL1       -0.2751
     22 H         141.9513  138.2514  165.1103 H       1  UNL1        0.1494
     23 C         139.2706  138.9532  165.3120 C.3     1  UNL1        0.0764
     24 C         138.5339  137.6627  165.5162 C.3     1  UNL1        0.0414
     25 C         137.8022  138.2644  166.6792 C.3     1  UNL1        0.1352
     26 F         136.7639  137.7773  167.6459 F       1  UNL1       -0.2400
     27 C         138.5390  139.5549  166.4750 C.3     1  UNL1        0.0414
     28 C         138.5356  138.3060  165.8422 C.3     1  UNL1        0.0414
     29 C         145.0991  139.7671  164.5061 C.3     1  UNL1        0.0017
     30 C         143.8350  140.3272  163.9245 C.3     1  UNL1        0.0196
@<TRIPOS>BOND
     1    29    30    1
     2    18    30    1
     3    18    19    1
     4    19    20   am
     5    20    21    2
     6    20    23    1
     7    23    24    1
     8    24    25    1
     9    25    26    1
    10    25    27    1
    11    25    28    1
    12     1    18    1
    13     1     2    1
    14     2     3    1
    15     3     4    1
    16     4     7    1
    17     7     8   ar
    18     8     9   ar
    19     9    10   ar
    20    10    11   ar
    21    11    12   ar
    22    12    13    1
    23    12    14   ar
    24    14    15    1
    25    14    16   ar
    26    16    17   ar
    27     4     5    1
    28     6     5    1
    29    27    23    1
    30     6     1    1
    31    28    23    1
    32     6     2    1
    33    17     7   ar
    34    17    10   ar
    35    19    22    1
