@<TRIPOS>MOLECULE
*****
 41 47 0 0 0
SMALL
GASTEIGER

@<TRIPOS>ATOM
      1 C         139.8561  145.3685  162.3986 C.ar    1  UNL1        0.2400
      2 N         139.5116  146.6252  161.6556 N.ar    1  UNL1       -0.2090
      3 C         139.6322  146.6698  160.1612 C.ar    1  UNL1        0.1021
      4 C         140.0666  145.6363  159.1028 C.ar    1  UNL1        0.0207
      5 C         140.1132  145.1069  160.5055 C.ar    1  UNL1        0.0221
      6 C         140.3213  144.1565  161.6471 C.ar    1  UNL1        0.1178
      7 N         140.6659  142.8999  162.3902 N.pl3   1  UNL1       -0.2104
      8 S         141.1053  141.4885  162.6448 S.O2    1  UNL1        0.0737
      9 O         141.2615  140.6679  163.8907 O.2     1  UNL1       -0.1499
     10 O         140.7477  142.2343  163.8962 O.2     1  UNL1       -0.1499
     11 C         141.5867  140.0926  162.3805 C.ar    1  UNL1        0.1253
     12 C         141.7948  139.1422  163.5222 C.ar    1  UNL1        0.0202
     13 C         142.2761  137.7464  163.2578 C.ar    1  UNL1        0.0015
     14 C         142.5494  137.3009  161.8518 C.ar    1  UNL1        0.0046
     15 C         142.3412  138.2512  160.7101 C.ar    1  UNL1        0.0549
     16 C         141.8599  139.6471  160.9745 C.ar    1  UNL1        0.0247
     17 C         142.7180  137.5532  159.0750 C.2     1  UNL1        0.2493
     18 O         143.1574  136.1418  159.3297 O.2     1  UNL1       -0.2699
     19 N         142.8385  137.5980  157.5806 N.am    1  UNL1       -0.2716
     20 C         143.2730  136.5644  156.5221 C.3     1  UNL1        0.0987
     21 C         143.3936  136.6091  155.0277 C.3     1  UNL1        0.0476
     22 C         143.0490  137.8658  154.2847 C.ar    1  UNL1       -0.0228
     23 C         142.6182  139.5678  152.8822 C.ar    1  UNL1       -0.0045
     24 C         142.1593  140.9931  152.7918 C.ar    1  UNL1       -0.0003
     25 C         141.7999  141.7458  154.0385 C.ar    1  UNL1       -0.0002
     26 C         142.2393  140.3344  154.2932 C.ar    1  UNL1       -0.0029
     27 C         142.5839  139.0778  155.0362 C.ar    1  UNL1       -0.0062
     28 C         142.7920  138.1273  156.1779 C.3     1  UNL1        0.1201
     29 C         141.3185  143.1417  154.3028 C.ar    1  UNL1        0.0030
     30 C         141.4391  143.1864  152.8083 C.ar    1  UNL1        0.0207
     31 C         141.0945  144.4431  152.0654 C.ar    1  UNL1        0.0988
     32 N         140.6294  145.6551  152.8168 N.ar    1  UNL1       -0.2438
     33 C         140.5088  145.6103  154.3113 C.ar    1  UNL1        0.0813
     34 C         140.0069  146.8677  155.3041 C.ar    1  UNL1        0.0191
     35 C         139.8614  146.8997  156.7967 C.ar    1  UNL1        0.0016
     36 C         140.1872  145.6810  157.6083 C.ar    1  UNL1        0.0016
     37 C         140.4605  145.2355  156.2023 C.ar    1  UNL1        0.0015
     38 C         140.8533  144.3537  155.0543 C.ar    1  UNL1        0.0177
     39 H         140.4866  143.1922  163.3130 H       1  UNL1        0.1739
     40 C         138.5217  144.7147  164.5297 C.3     1  UNL1        0.2543
     41 O         139.7355  145.3238  163.8931 O.3     1  UNL1       -0.4553
@<TRIPOS>BOND
     1    40    41    1
     2    41     1    1
     3     1     2   ar
     4     2     3   ar
     5     3     4   ar
     6     4     5   ar
     7     5     6   ar
     8     6     7    1
     9     7     8    1
    10     8     9    2
    11     8    10    2
    12     8    11    1
    13    11    12   ar
    14    12    13   ar
    15    13    14   ar
    16    14    15   ar
    17    15    16   ar
    18    15    17    1
    19    17    18    2
    20    17    19   am
    21    19    20    1
    22    20    21    1
    23    21    22    1
    24    22    23   ar
    25    23    24   ar
    26    24    25   ar
    27    25    26   ar
    28    26    27   ar
    29    27    28    1
    30    25    29    1
    31    29    30   ar
    32    30    31   ar
    33    31    32   ar
    34    32    33   ar
    35    33    34   ar
    36    34    35   ar
    37    35    36   ar
    38    36    37   ar
    39    37    38   ar
    40     6     1   ar
    41    16    11   ar
    42    28    19    1
    43    38    29   ar
    44    36     4    1
    45    27    22   ar
    46    38    33   ar
    47     7    39    1
@<TRIPOS>MOLECULE
*****
 41 47 0 0 0
SMALL
GASTEIGER

@<TRIPOS>ATOM
      1 C         143.3310  136.2093  156.4674 C.ar    1  UNL1        0.2400
      2 N         143.3522  136.2930  154.9698 N.ar    1  UNL1       -0.2090
      3 C         142.9458  137.5635  154.2838 C.ar    1  UNL1        0.1021
      4 C         142.4652  138.9361  154.7958 C.ar    1  UNL1        0.0207
      5 C         142.7586  137.9601  155.8964 C.ar    1  UNL1        0.0221
      6 C         142.9034  137.3962  157.2788 C.ar    1  UNL1        0.1178
      7 N         142.8822  137.3126  158.7763 N.pl3   1  UNL1       -0.2104
      8 S         142.6975  137.7193  160.2083 S.O2    1  UNL1        0.0737
      9 O         142.8947  137.0079  161.5140 O.2     1  UNL1       -0.1499
     10 O         143.1795  136.3078  160.0490 O.2     1  UNL1       -0.1499
     11 C         142.3717  138.5672  161.4021 C.ar    1  UNL1        0.1253
     12 C         142.5165  138.0034  162.7845 C.ar    1  UNL1        0.0202
     13 C         142.1907  138.8512  163.9781 C.ar    1  UNL1        0.0015
     14 C         141.7202  140.2630  163.7894 C.ar    1  UNL1        0.0046
     15 C         141.5754  140.8268  162.4070 C.ar    1  UNL1        0.0549
     16 C         141.9012  139.9789  161.2133 C.ar    1  UNL1        0.0247
     17 C         140.9956  142.5484  162.3561 C.2     1  UNL1        0.2493
     18 O         140.8110  142.9551  163.7881 O.2     1  UNL1       -0.2699
     19 N         140.5892  143.8189  161.6700 N.am    1  UNL1       -0.2716
     20 C         140.1087  145.1915  162.1820 C.3     1  UNL1        0.0987
     21 C         139.7022  146.4620  161.4960 C.3     1  UNL1        0.0476
     22 C         139.7234  146.5456  159.9985 C.ar    1  UNL1       -0.0228
     23 C         139.6422  147.0009  157.7995 C.ar    1  UNL1       -0.0045
     24 C         139.8749  146.4462  156.4253 C.ar    1  UNL1       -0.0003
     25 C         140.3569  145.0357  156.2575 C.ar    1  UNL1       -0.0002
     26 C         140.1723  145.4424  157.6895 C.ar    1  UNL1       -0.0029
     27 C         140.1511  145.3587  159.1870 C.ar    1  UNL1       -0.0062
     28 C         140.2958  144.7949  160.5695 C.3     1  UNL1        0.1201
     29 C         140.6827  144.1878  155.0638 C.ar    1  UNL1        0.0030
     30 C         140.2762  145.4583  154.3777 C.ar    1  UNL1        0.0207
     31 C         140.2974  145.5419  152.8802 C.ar    1  UNL1        0.0988
     32 N         140.7251  144.3551  152.0687 N.ar    1  UNL1       -0.2438
     33 C         141.1315  143.0846  152.7549 C.ar    1  UNL1        0.0813
     34 C         141.6343  141.6692  152.0049 C.ar    1  UNL1        0.0191
     35 C         142.0541  140.3663  152.6183 C.ar    1  UNL1        0.0016
     36 C         142.0588  140.2066  154.1098 C.ar    1  UNL1        0.0016
     37 C         141.5882  141.6183  153.9210 C.ar    1  UNL1        0.0015
     38 C         141.1103  143.0009  154.2524 C.ar    1  UNL1        0.0177
     39 H         143.1910  136.3860  158.9002 H       1  UNL1        0.1739
     40 C         142.9979  133.6647  156.8718 C.3     1  UNL1        0.2543
     41 O         143.7374  134.9389  157.1534 O.3     1  UNL1       -0.4553
@<TRIPOS>BOND
     1    40    41    1
     2    41     1    1
     3     1     2   ar
     4     2     3   ar
     5     3     4   ar
     6     4     5   ar
     7     5     6   ar
     8     6     7    1
     9     7     8    1
    10     8     9    2
    11     8    10    2
    12     8    11    1
    13    11    12   ar
    14    12    13   ar
    15    13    14   ar
    16    14    15   ar
    17    15    16   ar
    18    15    17    1
    19    17    18    2
    20    17    19   am
    21    19    20    1
    22    20    21    1
    23    21    22    1
    24    22    23   ar
    25    23    24   ar
    26    24    25   ar
    27    25    26   ar
    28    26    27   ar
    29    27    28    1
    30    25    29    1
    31    29    30   ar
    32    30    31   ar
    33    31    32   ar
    34    32    33   ar
    35    33    34   ar
    36    34    35   ar
    37    35    36   ar
    38    36    37   ar
    39    37    38   ar
    40     6     1   ar
    41    16    11   ar
    42    28    19    1
    43    38    29   ar
    44    36     4    1
    45    27    22   ar
    46    38    33   ar
    47     7    39    1
@<TRIPOS>MOLECULE
*****
 41 47 0 0 0
SMALL
GASTEIGER

@<TRIPOS>ATOM
      1 C         143.8713  140.0362  162.2941 C.ar    1  UNL1        0.2400
      2 N         144.3401  138.6169  162.4193 N.ar    1  UNL1       -0.2090
      3 C         144.0648  137.6362  161.3183 C.ar    1  UNL1        0.1021
      4 C         143.3472  137.7456  159.9581 C.ar    1  UNL1        0.0207
      5 C         143.3663  139.0341  160.7259 C.ar    1  UNL1        0.0221
      6 C         143.1271  140.4748  161.0678 C.ar    1  UNL1        0.1178
      7 N         142.6582  141.8941  160.9426 N.pl3   1  UNL1       -0.2104
      8 S         142.0163  143.1208  160.3653 S.O2    1  UNL1        0.0737
      9 O         141.8614  144.5296  160.8564 O.2     1  UNL1       -0.1499
     10 O         142.6311  143.3508  161.7140 O.2     1  UNL1       -0.1499
     11 C         141.2787  144.0069  159.4056 C.ar    1  UNL1        0.1253
     12 C         141.0394  145.4476  159.7475 C.ar    1  UNL1        0.0202
     13 C         140.3019  146.3336  158.7879 C.ar    1  UNL1        0.0015
     14 C         139.8036  145.7789  157.4863 C.ar    1  UNL1        0.0046
     15 C         140.0429  144.3382  157.1444 C.ar    1  UNL1        0.0549
     16 C         140.7804  143.4522  158.1041 C.ar    1  UNL1        0.0247
     17 C         139.3752  143.8289  155.5327 C.2     1  UNL1        0.2493
     18 O         138.7332  145.0556  154.9554 O.2     1  UNL1       -0.2699
     19 N         139.0999  142.8481  154.4317 N.am    1  UNL1       -0.2716
     20 C         138.3822  142.9575  153.0715 C.3     1  UNL1        0.0987
     21 C         138.1069  141.9768  151.9704 C.3     1  UNL1        0.0476
     22 C         138.5758  140.5575  152.0957 C.ar    1  UNL1       -0.0228
     23 C         139.1321  138.3841  151.9670 C.ar    1  UNL1       -0.0045
     24 C         139.8135  137.2511  152.6755 C.ar    1  UNL1       -0.0003
     25 C         140.4308  137.4729  154.0245 C.ar    1  UNL1       -0.0002
     26 C         139.7889  138.6996  153.4472 C.ar    1  UNL1       -0.0029
     27 C         139.3200  140.1189  153.3220 C.ar    1  UNL1       -0.0062
     28 C         139.0807  141.5597  153.6639 C.3     1  UNL1        0.1201
     29 C         141.1684  136.5869  154.9841 C.ar    1  UNL1        0.0030
     30 C         140.8931  135.6061  153.8830 C.ar    1  UNL1        0.0207
     31 C         141.3620  134.1868  154.0083 C.ar    1  UNL1        0.0988
     32 N         142.1061  133.7482  155.2346 N.ar    1  UNL1       -0.2438
     33 C         142.3814  134.7290  156.3357 C.ar    1  UNL1        0.0813
     34 C         143.1959  134.4091  157.7684 C.ar    1  UNL1        0.0191
     35 C         143.5085  135.3308  158.9099 C.ar    1  UNL1        0.0016
     36 C         143.0719  136.7649  158.8570 C.ar    1  UNL1        0.0016
     37 C         142.5736  136.2101  157.5555 C.ar    1  UNL1        0.0015
     38 C         141.9126  136.1483  156.2105 C.ar    1  UNL1        0.0177
     39 H         142.9852  142.2582  161.7968 H       1  UNL1        0.1739
     40 C         145.5335  141.5529  163.5929 C.3     1  UNL1        0.2543
     41 O         144.1466  141.0169  163.3952 O.3     1  UNL1       -0.4553
@<TRIPOS>BOND
     1    40    41    1
     2    41     1    1
     3     1     2   ar
     4     2     3   ar
     5     3     4   ar
     6     4     5   ar
     7     5     6   ar
     8     6     7    1
     9     7     8    1
    10     8     9    2
    11     8    10    2
    12     8    11    1
    13    11    12   ar
    14    12    13   ar
    15    13    14   ar
    16    14    15   ar
    17    15    16   ar
    18    15    17    1
    19    17    18    2
    20    17    19   am
    21    19    20    1
    22    20    21    1
    23    21    22    1
    24    22    23   ar
    25    23    24   ar
    26    24    25   ar
    27    25    26   ar
    28    26    27   ar
    29    27    28    1
    30    25    29    1
    31    29    30   ar
    32    30    31   ar
    33    31    32   ar
    34    32    33   ar
    35    33    34   ar
    36    34    35   ar
    37    35    36   ar
    38    36    37   ar
    39    37    38   ar
    40     6     1   ar
    41    16    11   ar
    42    28    19    1
    43    38    29   ar
    44    36     4    1
    45    27    22   ar
    46    38    33   ar
    47     7    39    1
@<TRIPOS>MOLECULE
*****
 41 47 0 0 0
SMALL
GASTEIGER

@<TRIPOS>ATOM
      1 C         142.6285  138.1053  162.2651 C.ar    1  UNL1        0.2400
      2 N         143.0924  136.9266  161.4618 N.ar    1  UNL1       -0.2090
      3 C         143.1173  137.0027  159.9640 C.ar    1  UNL1        0.1021
      4 C         142.7453  138.1064  158.9537 C.ar    1  UNL1        0.0207
      5 C         142.5436  138.5154  160.3828 C.ar    1  UNL1        0.0221
      6 C         142.1895  139.3603  161.5705 C.ar    1  UNL1        0.1178
      7 N         141.7256  140.5390  162.3738 N.pl3   1  UNL1       -0.2104
      8 S         141.2078  141.9095  162.6957 S.O2    1  UNL1        0.0737
      9 O         140.9006  142.6181  163.9816 O.2     1  UNL1       -0.1499
     10 O         141.4735  141.0738  163.9127 O.2     1  UNL1       -0.1499
     11 C         140.6987  143.3066  162.4975 C.ar    1  UNL1        0.1253
     12 C         140.3446  144.1514  163.6852 C.ar    1  UNL1        0.0202
     13 C         139.8356  145.5483  163.4869 C.ar    1  UNL1        0.0015
     14 C         139.6806  146.1004  162.1009 C.ar    1  UNL1        0.0046
     15 C         140.0347  145.2556  160.9131 C.ar    1  UNL1        0.0549
     16 C         140.5438  143.8587  161.1114 C.ar    1  UNL1        0.0247
     17 C         139.7887  146.0751  159.3098 C.2     1  UNL1        0.2493
     18 O         139.2710  147.4456  159.6317 O.2     1  UNL1       -0.2699
     19 N         139.8136  146.1512  157.8119 N.am    1  UNL1       -0.2716
     20 C         139.4416  147.2549  156.8017 C.3     1  UNL1        0.0987
     21 C         139.4665  147.3310  155.3039 C.3     1  UNL1        0.0476
     22 C         139.9304  146.1523  154.5005 C.ar    1  UNL1       -0.0228
     23 C         140.5609  144.5876  153.0161 C.ar    1  UNL1       -0.0045
     24 C         141.0828  143.1902  152.8579 C.ar    1  UNL1       -0.0003
     25 C         141.3510  142.3480  154.0699 C.ar    1  UNL1       -0.0002
     26 C         140.8333  143.7186  154.3918 C.ar    1  UNL1       -0.0029
     27 C         140.3694  144.8973  155.1951 C.ar    1  UNL1       -0.0062
     28 C         140.0153  145.7422  156.3829 C.3     1  UNL1        0.1201
     29 C         141.8601  140.9511  154.2682 C.ar    1  UNL1        0.0030
     30 C         141.8850  141.0272  152.7703 C.ar    1  UNL1        0.0207
     31 C         142.3489  139.8484  151.9671 C.ar    1  UNL1        0.0988
     32 N         142.7879  138.5935  152.6616 N.ar    1  UNL1       -0.2438
     33 C         142.7630  138.5174  154.1595 C.ar    1  UNL1        0.0813
     34 C         143.2173  137.1984  155.0934 C.ar    1  UNL1        0.0191
     35 C         143.2205  137.0468  156.5857 C.ar    1  UNL1        0.0016
     36 C         142.7701  138.1826  157.4559 C.ar    1  UNL1        0.0016
     37 C         142.6152  138.7347  156.0699 C.ar    1  UNL1        0.0015
     38 C         142.2991  139.6962  154.9628 C.ar    1  UNL1        0.0177
     39 H         141.8272  140.1766  163.2836 H       1  UNL1        0.1739
     40 C         141.3947  137.4874  164.4665 C.3     1  UNL1        0.2543
     41 O         142.6036  138.0292  163.7629 O.3     1  UNL1       -0.4553
@<TRIPOS>BOND
     1    40    41    1
     2    41     1    1
     3     1     2   ar
     4     2     3   ar
     5     3     4   ar
     6     4     5   ar
     7     5     6   ar
     8     6     7    1
     9     7     8    1
    10     8     9    2
    11     8    10    2
    12     8    11    1
    13    11    12   ar
    14    12    13   ar
    15    13    14   ar
    16    14    15   ar
    17    15    16   ar
    18    15    17    1
    19    17    18    2
    20    17    19   am
    21    19    20    1
    22    20    21    1
    23    21    22    1
    24    22    23   ar
    25    23    24   ar
    26    24    25   ar
    27    25    26   ar
    28    26    27   ar
    29    27    28    1
    30    25    29    1
    31    29    30   ar
    32    30    31   ar
    33    31    32   ar
    34    32    33   ar
    35    33    34   ar
    36    34    35   ar
    37    35    36   ar
    38    36    37   ar
    39    37    38   ar
    40     6     1   ar
    41    16    11   ar
    42    28    19    1
    43    38    29   ar
    44    36     4    1
    45    27    22   ar
    46    38    33   ar
    47     7    39    1
@<TRIPOS>MOLECULE
*****
 41 47 0 0 0
SMALL
GASTEIGER

@<TRIPOS>ATOM
      1 C         143.2517  143.5613  162.0573 C.ar    1  UNL1        0.2400
      2 N         143.9800  142.4789  162.7976 N.ar    1  UNL1       -0.2090
      3 C         144.0110  141.0839  162.2472 C.ar    1  UNL1        0.1021
      4 C         143.4177  140.4313  160.9826 C.ar    1  UNL1        0.0207
      5 C         143.1071  141.8943  161.0987 C.ar    1  UNL1        0.0221
      6 C         142.5543  143.2485  160.7665 C.ar    1  UNL1        0.1178
      7 N         141.8260  144.3309  160.0262 N.pl3   1  UNL1       -0.2104
      8 S         141.0100  145.0107  158.9670 S.O2    1  UNL1        0.0737
      9 O         140.5318  146.4204  158.7824 O.2     1  UNL1       -0.1499
     10 O         141.4364  145.9321  160.0712 O.2     1  UNL1       -0.1499
     11 C         140.2047  145.2060  157.7166 C.ar    1  UNL1        0.1253
     12 C         139.6519  146.5603  157.3844 C.ar    1  UNL1        0.0202
     13 C         138.8467  146.7556  156.1341 C.ar    1  UNL1        0.0015
     14 C         138.5943  145.5967  155.2159 C.ar    1  UNL1        0.0046
     15 C         139.1471  144.2424  155.5480 C.ar    1  UNL1        0.0549
     16 C         139.9523  144.0471  156.7983 C.ar    1  UNL1        0.0247
     17 C         138.7495  142.9513  154.3323 C.2     1  UNL1        0.2493
     18 O         137.9335  143.6311  153.2731 O.2     1  UNL1       -0.2699
     19 N         138.7805  141.5563  153.7820 N.am    1  UNL1       -0.2716
     20 C         138.1873  140.9037  152.5174 C.3     1  UNL1        0.0987
     21 C         138.2183  139.5087  151.9670 C.3     1  UNL1        0.0476
     22 C         138.9466  138.4263  152.7073 C.ar    1  UNL1       -0.0228
     23 C         139.9344  136.5944  153.5545 C.ar    1  UNL1       -0.0045
     24 C         140.7578  136.0620  154.6896 C.ar    1  UNL1       -0.0003
     25 C         141.1883  136.9769  155.7976 C.ar    1  UNL1       -0.0002
     26 C         140.3723  137.6567  154.7384 C.ar    1  UNL1       -0.0029
     27 C         139.6440  138.7391  153.9981 C.ar    1  UNL1       -0.0062
     28 C         139.0911  140.0934  153.6659 C.3     1  UNL1        0.1201
     29 C         141.9935  136.7816  157.0480 C.ar    1  UNL1        0.0030
     30 C         142.0245  135.3865  156.4976 C.ar    1  UNL1        0.0207
     31 C         142.7528  134.3042  157.2380 C.ar    1  UNL1        0.0988
     32 N         143.4502  134.6169  158.5287 N.ar    1  UNL1       -0.2438
     33 C         143.4192  136.0120  159.0790 C.ar    1  UNL1        0.0813
     34 C         144.1419  136.5334  160.5017 C.ar    1  UNL1        0.0191
     35 C         144.1553  137.9026  161.1144 C.ar    1  UNL1        0.0016
     36 C         143.4487  139.0363  160.4322 C.ar    1  UNL1        0.0016
     37 C         143.1962  137.8774  159.5140 C.ar    1  UNL1        0.0015
     38 C         142.6909  137.0944  158.3387 C.ar    1  UNL1        0.0177
     39 H         141.9917  145.0915  160.6289 H       1  UNL1        0.1739
     40 C         142.1173  145.3726  163.5344 C.3     1  UNL1        0.2543
     41 O         143.2207  144.9563  162.6076 O.3     1  UNL1       -0.4553
@<TRIPOS>BOND
     1    40    41    1
     2    41     1    1
     3     1     2   ar
     4     2     3   ar
     5     3     4   ar
     6     4     5   ar
     7     5     6   ar
     8     6     7    1
     9     7     8    1
    10     8     9    2
    11     8    10    2
    12     8    11    1
    13    11    12   ar
    14    12    13   ar
    15    13    14   ar
    16    14    15   ar
    17    15    16   ar
    18    15    17    1
    19    17    18    2
    20    17    19   am
    21    19    20    1
    22    20    21    1
    23    21    22    1
    24    22    23   ar
    25    23    24   ar
    26    24    25   ar
    27    25    26   ar
    28    26    27   ar
    29    27    28    1
    30    25    29    1
    31    29    30   ar
    32    30    31   ar
    33    31    32   ar
    34    32    33   ar
    35    33    34   ar
    36    34    35   ar
    37    35    36   ar
    38    36    37   ar
    39    37    38   ar
    40     6     1   ar
    41    16    11   ar
    42    28    19    1
    43    38    29   ar
    44    36     4    1
    45    27    22   ar
    46    38    33   ar
    47     7    39    1
@<TRIPOS>MOLECULE
*****
 41 47 0 0 0
SMALL
GASTEIGER

@<TRIPOS>ATOM
      1 C         142.3583  139.0062  163.1681 C.ar    1  UNL1        0.2400
      2 N         142.7908  137.6275  162.7655 N.ar    1  UNL1       -0.2090
      3 C         142.8421  137.2514  161.3144 C.ar    1  UNL1        0.1021
      4 C         142.5272  138.0133  160.0115 C.ar    1  UNL1        0.0207
      5 C         142.3183  138.8370  161.2476 C.ar    1  UNL1        0.0221
      6 C         141.9770  140.0088  162.1195 C.ar    1  UNL1        0.1178
      7 N         141.5445  141.3875  162.5222 N.pl3   1  UNL1       -0.2104
      8 S         141.0730  142.8068  162.4069 S.O2    1  UNL1        0.0737
      9 O         140.7719  143.8766  163.4143 O.2     1  UNL1       -0.1499
     10 O         141.2883  142.3656  163.8243 O.2     1  UNL1       -0.1499
     11 C         140.6191  144.0955  161.7876 C.ar    1  UNL1        0.1253
     12 C         140.2779  145.2673  162.6596 C.ar    1  UNL1        0.0202
     13 C         139.8241  146.5559  162.0403 C.ar    1  UNL1        0.0015
     14 C         139.7116  146.6727  160.5491 C.ar    1  UNL1        0.0046
     15 C         140.0529  145.5009  159.6771 C.ar    1  UNL1        0.0549
     16 C         140.5066  144.2123  160.2964 C.ar    1  UNL1        0.0247
     17 C         139.8627  145.8104  157.8965 C.2     1  UNL1        0.2493
     18 O         139.3911  147.2297  157.7812 O.2     1  UNL1       -0.2699
     19 N         139.9139  145.4343  156.4453 N.am    1  UNL1       -0.2716
     20 C         139.5990  146.1962  155.1424 C.3     1  UNL1        0.0987
     21 C         139.6503  145.8201  153.6913 C.3     1  UNL1        0.0476
     22 C         140.0828  144.4414  153.2887 C.ar    1  UNL1       -0.0228
     23 C         140.6783  142.4858  152.3557 C.ar    1  UNL1       -0.0045
     24 C         141.1504  141.0897  152.6353 C.ar    1  UNL1       -0.0003
     25 C         141.3681  140.6408  154.0499 C.ar    1  UNL1       -0.0002
     26 C         140.8966  142.0601  153.9346 C.ar    1  UNL1       -0.0029
     27 C         140.4641  143.4388  154.3372 C.ar    1  UNL1       -0.0062
     28 C         140.1228  144.6107  155.2092 C.3     1  UNL1        0.1201
     29 C         141.8219  139.3522  154.6692 C.ar    1  UNL1        0.0030
     30 C         141.8732  138.9760  153.2179 C.ar    1  UNL1        0.0207
     31 C         142.3057  137.5973  152.8154 C.ar    1  UNL1        0.0988
     32 N         142.6870  136.5947  153.8639 N.ar    1  UNL1       -0.2438
     33 C         142.6357  136.9709  155.3151 C.ar    1  UNL1        0.0813
     34 C         143.0260  135.9783  156.6116 C.ar    1  UNL1        0.0191
     35 C         143.0001  136.2799  158.0807 C.ar    1  UNL1        0.0016
     36 C         142.5784  137.6372  158.5603 C.ar    1  UNL1        0.0016
     37 C         142.4659  137.7540  157.0691 C.ar    1  UNL1        0.0015
     38 C         142.2032  138.3496  155.7178 C.ar    1  UNL1        0.0177
     39 H         141.6184  141.3109  163.5009 H       1  UNL1        0.1739
     40 C         142.9151  138.4784  165.6503 C.3     1  UNL1        0.2543
     41 O         142.3070  139.3823  164.6193 O.3     1  UNL1       -0.4553
@<TRIPOS>BOND
     1    40    41    1
     2    41     1    1
     3     1     2   ar
     4     2     3   ar
     5     3     4   ar
     6     4     5   ar
     7     5     6   ar
     8     6     7    1
     9     7     8    1
    10     8     9    2
    11     8    10    2
    12     8    11    1
    13    11    12   ar
    14    12    13   ar
    15    13    14   ar
    16    14    15   ar
    17    15    16   ar
    18    15    17    1
    19    17    18    2
    20    17    19   am
    21    19    20    1
    22    20    21    1
    23    21    22    1
    24    22    23   ar
    25    23    24   ar
    26    24    25   ar
    27    25    26   ar
    28    26    27   ar
    29    27    28    1
    30    25    29    1
    31    29    30   ar
    32    30    31   ar
    33    31    32   ar
    34    32    33   ar
    35    33    34   ar
    36    34    35   ar
    37    35    36   ar
    38    36    37   ar
    39    37    38   ar
    40     6     1   ar
    41    16    11   ar
    42    28    19    1
    43    38    29   ar
    44    36     4    1
    45    27    22   ar
    46    38    33   ar
    47     7    39    1
@<TRIPOS>MOLECULE
*****
 41 47 0 0 0
SMALL
GASTEIGER

@<TRIPOS>ATOM
      1 C         142.9723  135.0040  157.9817 C.ar    1  UNL1        0.2400
      2 N         143.7268  135.0235  159.2780 N.ar    1  UNL1       -0.2090
      3 C         143.8282  136.2947  160.0676 C.ar    1  UNL1        0.1021
      4 C         143.2925  137.7236  159.8472 C.ar    1  UNL1        0.0207
      5 C         142.9192  136.7723  158.7491 C.ar    1  UNL1        0.0221
      6 C         142.3192  136.2558  157.4752 C.ar    1  UNL1        0.1178
      7 N         141.5646  136.2363  156.1789 N.pl3   1  UNL1       -0.2104
      8 S         140.7466  136.7162  155.0168 S.O2    1  UNL1        0.0737
      9 O         140.2153  136.0450  153.7850 O.2     1  UNL1       -0.1499
     10 O         141.1085  135.2631  154.9289 O.2     1  UNL1       -0.1499
     11 C         139.9639  137.6375  154.1288 C.ar    1  UNL1        0.1253
     12 C         139.3638  137.1210  152.8548 C.ar    1  UNL1        0.0202
     13 C         138.5810  138.0424  151.9670 C.ar    1  UNL1        0.0015
     14 C         138.3984  139.4803  152.3531 C.ar    1  UNL1        0.0046
     15 C         138.9984  139.9968  153.6271 C.ar    1  UNL1        0.0549
     16 C         139.7812  139.0754  154.5149 C.ar    1  UNL1        0.0247
     17 C         138.6833  141.7583  153.9443 C.2     1  UNL1        0.2493
     18 O         137.8654  142.2382  152.7822 O.2     1  UNL1       -0.2699
     19 N         138.7848  143.0295  154.7341 N.am    1  UNL1       -0.2716
     20 C         138.2491  144.4583  154.5137 C.3     1  UNL1        0.0987
     21 C         138.3505  145.7295  155.3034 C.3     1  UNL1        0.0476
     22 C         139.1050  145.7491  156.5997 C.ar    1  UNL1       -0.0228
     23 C         140.1471  146.1183  158.5560 C.ar    1  UNL1       -0.0045
     24 C         140.9646  145.4894  159.6451 C.ar    1  UNL1       -0.0003
     25 C         141.3307  144.0369  159.5646 C.ar    1  UNL1       -0.0002
     26 C         140.5127  144.5168  158.4024 C.ar    1  UNL1       -0.0029
     27 C         139.7581  144.4973  157.1062 C.ar    1  UNL1       -0.0062
     28 C         139.1580  143.9808  155.8321 C.3     1  UNL1        0.1201
     29 C         142.1134  143.1155  160.4525 C.ar    1  UNL1        0.0030
     30 C         142.2148  144.3868  161.2423 C.ar    1  UNL1        0.0207
     31 C         142.9694  144.4063  162.5385 C.ar    1  UNL1        0.0988
     32 N         143.6225  143.1546  163.0451 N.ar    1  UNL1       -0.2438
     33 C         143.5211  141.8833  162.2553 C.ar    1  UNL1        0.0813
     34 C         144.1878  140.4002  162.6728 C.ar    1  UNL1        0.0191
     35 C         144.1302  139.0926  161.9401 C.ar    1  UNL1        0.0016
     36 C         143.3939  138.9948  160.6369 C.ar    1  UNL1        0.0016
     37 C         143.2112  140.4327  161.0231 C.ar    1  UNL1        0.0015
     38 C         142.7665  141.8638  160.9590 C.ar    1  UNL1        0.0177
     39 H         141.6845  135.2925  155.9255 H       1  UNL1        0.1739
     40 C         143.9480  133.3699  156.2131 C.3     1  UNL1        0.2543
     41 O         142.8709  133.7328  157.1920 O.3     1  UNL1       -0.4553
@<TRIPOS>BOND
     1    40    41    1
     2    41     1    1
     3     1     2   ar
     4     2     3   ar
     5     3     4   ar
     6     4     5   ar
     7     5     6   ar
     8     6     7    1
     9     7     8    1
    10     8     9    2
    11     8    10    2
    12     8    11    1
    13    11    12   ar
    14    12    13   ar
    15    13    14   ar
    16    14    15   ar
    17    15    16   ar
    18    15    17    1
    19    17    18    2
    20    17    19   am
    21    19    20    1
    22    20    21    1
    23    21    22    1
    24    22    23   ar
    25    23    24   ar
    26    24    25   ar
    27    25    26   ar
    28    26    27   ar
    29    27    28    1
    30    25    29    1
    31    29    30   ar
    32    30    31   ar
    33    31    32   ar
    34    32    33   ar
    35    33    34   ar
    36    34    35   ar
    37    35    36   ar
    38    36    37   ar
    39    37    38   ar
    40     6     1   ar
    41    16    11   ar
    42    28    19    1
    43    38    29   ar
    44    36     4    1
    45    27    22   ar
    46    38    33   ar
    47     7    39    1
@<TRIPOS>MOLECULE
*****
 41 47 0 0 0
SMALL
GASTEIGER

@<TRIPOS>ATOM
      1 C         141.4781  144.7442  161.1355 C.ar    1  UNL1        0.2400
      2 N         140.7245  145.9011  160.5493 N.ar    1  UNL1       -0.2090
      3 C         140.0207  145.7483  159.2335 C.ar    1  UNL1        0.1021
      4 C         139.8706  144.5763  158.2430 C.ar    1  UNL1        0.0207
      5 C         140.6906  144.2328  159.4512 C.ar    1  UNL1        0.0221
      6 C         141.5279  143.4345  160.4059 C.ar    1  UNL1        0.1178
      7 N         142.2815  142.2776  160.9922 N.pl3   1  UNL1       -0.2104
      8 S         142.8606  140.9017  161.1391 S.O2    1  UNL1        0.0737
      9 O         143.7035  140.2468  162.1929 O.2     1  UNL1       -0.1499
     10 O         143.1937  141.8119  162.2839 O.2     1  UNL1       -0.1499
     11 C         143.1952  139.4727  160.8291 C.ar    1  UNL1        0.1253
     12 C         144.0325  138.6744  161.7839 C.ar    1  UNL1        0.0202
     13 C         144.3671  137.2455  161.4738 C.ar    1  UNL1        0.0015
     14 C         143.8644  136.6148  160.2091 C.ar    1  UNL1        0.0046
     15 C         143.0271  137.4131  159.2543 C.ar    1  UNL1        0.0549
     16 C         142.6925  138.8421  159.5644 C.ar    1  UNL1        0.0247
     17 C         142.5013  136.5000  157.7736 C.2     1  UNL1        0.2493
     18 O         143.0804  135.1241  157.9206 O.2     1  UNL1       -0.2699
     19 N         141.7975  136.3473  156.4578 N.am    1  UNL1       -0.2716
     20 C         141.6474  135.1753  155.4673 C.3     1  UNL1        0.0987
     21 C         140.9436  135.0226  154.1515 C.3     1  UNL1        0.0476
     22 C         140.1900  136.1794  153.5653 C.ar    1  UNL1       -0.0228
     23 C         138.9866  137.6940  152.4219 C.ar    1  UNL1       -0.0045
     24 C         138.4788  139.1054  152.4206 C.ar    1  UNL1       -0.0003
     25 C         138.8075  140.0219  153.5617 C.ar    1  UNL1       -0.0002
     26 C         139.3866  138.6460  153.7087 C.ar    1  UNL1       -0.0029
     27 C         140.1402  137.4891  154.2949 C.ar    1  UNL1       -0.0062
     28 C         140.9775  136.6907  155.2497 C.3     1  UNL1        0.1201
     29 C         138.4730  141.4508  153.8717 C.ar    1  UNL1        0.0030
     30 C         137.7691  141.2981  152.5559 C.ar    1  UNL1        0.0207
     31 C         137.0155  142.4550  151.9697 C.ar    1  UNL1        0.0988
     32 N         136.9657  143.7647  152.6992 N.ar    1  UNL1       -0.2438
     33 C         137.6695  143.9174  154.0151 C.ar    1  UNL1        0.0813
     34 C         137.7161  145.3042  154.9600 C.ar    1  UNL1        0.0191
     35 C         138.3940  145.5334  156.2784 C.ar    1  UNL1        0.0016
     36 C         139.1668  144.4235  156.9272 C.ar    1  UNL1        0.0016
     37 C         138.6641  143.7929  155.6625 C.ar    1  UNL1        0.0015
     38 C         138.4231  142.7605  154.6013 C.ar    1  UNL1        0.0177
     39 H         142.6115  142.6915  161.8223 H       1  UNL1        0.1739
     40 C         141.4140  144.7623  163.7327 C.3     1  UNL1        0.2543
     41 O         142.1819  144.8970  162.4513 O.3     1  UNL1       -0.4553
@<TRIPOS>BOND
     1    40    41    1
     2    41     1    1
     3     1     2   ar
     4     2     3   ar
     5     3     4   ar
     6     4     5   ar
     7     5     6   ar
     8     6     7    1
     9     7     8    1
    10     8     9    2
    11     8    10    2
    12     8    11    1
    13    11    12   ar
    14    12    13   ar
    15    13    14   ar
    16    14    15   ar
    17    15    16   ar
    18    15    17    1
    19    17    18    2
    20    17    19   am
    21    19    20    1
    22    20    21    1
    23    21    22    1
    24    22    23   ar
    25    23    24   ar
    26    24    25   ar
    27    25    26   ar
    28    26    27   ar
    29    27    28    1
    30    25    29    1
    31    29    30   ar
    32    30    31   ar
    33    31    32   ar
    34    32    33   ar
    35    33    34   ar
    36    34    35   ar
    37    35    36   ar
    38    36    37   ar
    39    37    38   ar
    40     6     1   ar
    41    16    11   ar
    42    28    19    1
    43    38    29   ar
    44    36     4    1
    45    27    22   ar
    46    38    33   ar
    47     7    39    1
@<TRIPOS>MOLECULE
*****
 41 47 0 0 0
SMALL
GASTEIGER

@<TRIPOS>ATOM
      1 C         143.2514  135.7699  157.6242 C.ar    1  UNL1        0.2400
      2 N         143.5744  135.3045  159.0132 N.ar    1  UNL1       -0.2090
      3 C         143.3903  136.2327  160.1769 C.ar    1  UNL1        0.1021
      4 C         142.9022  137.6899  160.3021 C.ar    1  UNL1        0.0207
      5 C         142.9113  137.1847  158.8897 C.ar    1  UNL1        0.0221
      6 C         142.7443  137.1636  157.3992 C.ar    1  UNL1        0.1178
      7 N         142.4214  137.6290  156.0103 N.pl3   1  UNL1       -0.2104
      8 S         141.9814  138.5248  154.8905 S.O2    1  UNL1        0.0737
      9 O         141.8719  138.3392  153.4061 O.2     1  UNL1       -0.1499
     10 O         142.3986  137.1595  154.4301 O.2     1  UNL1       -0.1499
     11 C         141.4775  139.7431  154.1749 C.ar    1  UNL1        0.1253
     12 C         141.3105  139.7219  152.6844 C.ar    1  UNL1        0.0202
     13 C         140.8066  140.9401  151.9688 C.ar    1  UNL1        0.0015
     14 C         140.4697  142.1794  152.7438 C.ar    1  UNL1        0.0046
     15 C         140.6366  142.2006  154.2343 C.ar    1  UNL1        0.0549
     16 C         141.1406  140.9824  154.9498 C.ar    1  UNL1        0.0247
     17 C         140.1844  143.7770  155.0174 C.2     1  UNL1        0.2493
     18 O         139.7444  144.6728  153.8976 O.2     1  UNL1       -0.2699
     19 N         140.0003  144.7051  156.1812 N.am    1  UNL1       -0.2716
     20 C         139.5123  146.1623  156.3064 C.3     1  UNL1        0.0987
     21 C         139.3281  147.0905  157.4701 C.3     1  UNL1        0.0476
     22 C         139.6511  146.6251  158.8591 C.ar    1  UNL1       -0.0228
     23 C         140.0358  146.2496  161.0409 C.ar    1  UNL1       -0.0045
     24 C         140.5023  145.2377  162.0451 C.ar    1  UNL1       -0.0003
     25 C         140.9211  143.8702  161.5928 C.ar    1  UNL1       -0.0002
     26 C         140.4812  144.7660  160.4730 C.ar    1  UNL1       -0.0029
     27 C         140.1582  145.2314  159.0841 C.ar    1  UNL1       -0.0062
     28 C         139.9912  145.2103  157.5936 C.3     1  UNL1        0.1201
     29 C         141.4250  142.6520  162.3083 C.ar    1  UNL1        0.0030
     30 C         141.2409  143.5802  163.4723 C.ar    1  UNL1        0.0207
     31 C         141.5639  143.1147  164.8611 C.ar    1  UNL1        0.0988
     32 N         142.0710  141.7211  165.0862 N.ar    1  UNL1       -0.2438
     33 C         142.2551  140.7929  163.9223 C.ar    1  UNL1        0.0813
     34 C         142.8096  139.2099  163.9940 C.ar    1  UNL1        0.0191
     35 C         143.0192  138.2253  162.8819 C.ar    1  UNL1        0.0016
     36 C         142.7181  138.6180  161.4659 C.ar    1  UNL1        0.0016
     37 C         142.3812  139.8574  162.2408 C.ar    1  UNL1        0.0015
     38 C         141.9321  141.2583  162.5334 C.ar    1  UNL1        0.0177
     39 H         142.6425  136.8156  155.5016 H       1  UNL1        0.1739
     40 C         142.3168  133.9357  156.0393 C.3     1  UNL1        0.2543
     41 O         143.4356  134.8417  156.4604 O.3     1  UNL1       -0.4553
@<TRIPOS>BOND
     1    40    41    1
     2    41     1    1
     3     1     2   ar
     4     2     3   ar
     5     3     4   ar
     6     4     5   ar
     7     5     6   ar
     8     6     7    1
     9     7     8    1
    10     8     9    2
    11     8    10    2
    12     8    11    1
    13    11    12   ar
    14    12    13   ar
    15    13    14   ar
    16    14    15   ar
    17    15    16   ar
    18    15    17    1
    19    17    18    2
    20    17    19   am
    21    19    20    1
    22    20    21    1
    23    21    22    1
    24    22    23   ar
    25    23    24   ar
    26    24    25   ar
    27    25    26   ar
    28    26    27   ar
    29    27    28    1
    30    25    29    1
    31    29    30   ar
    32    30    31   ar
    33    31    32   ar
    34    32    33   ar
    35    33    34   ar
    36    34    35   ar
    37    35    36   ar
    38    36    37   ar
    39    37    38   ar
    40     6     1   ar
    41    16    11   ar
    42    28    19    1
    43    38    29   ar
    44    36     4    1
    45    27    22   ar
    46    38    33   ar
    47     7    39    1
