@<TRIPOS>MOLECULE
*****
 32 35 0 0 0
SMALL
GASTEIGER

@<TRIPOS>ATOM
      1 N         144.1882  139.8789  163.7599 N.3     1  UNL1       -0.2700
      2 C         143.3655  139.3373  162.6287 C.3     1  UNL1        0.0897
      3 C         142.2143  138.4182  162.9115 C.3     1  UNL1        0.0897
      4 N         141.8859  138.0407  164.3256 N.3     1  UNL1       -0.2700
      5 C         142.7086  138.5823  165.4568 C.3     1  UNL1        0.0897
      6 C         143.8598  139.5014  165.1740 C.3     1  UNL1        0.0897
      7 C         145.3395  140.7980  163.4771 C.3     1  UNL1        0.0769
      8 C         145.2493  142.2488  163.8469 C.3     1  UNL1        0.0437
      9 C         142.2732  143.6279  161.6128 C.ar    1  UNL1        0.1150
     10 C         143.4500  142.8120  162.0593 C.ar    1  UNL1        0.0148
     11 C         144.0725  143.0648  163.4004 C.ar    1  UNL1       -0.0195
     12 C         143.5181  144.1335  164.2951 C.ar    1  UNL1       -0.0035
     13 C         142.3413  144.9495  163.8486 C.ar    1  UNL1        0.0113
     14 C         141.7188  144.6967  162.5075 C.ar    1  UNL1        0.0855
     15 C         141.0282  143.1223  158.9306 C.3     1  UNL1        0.1816
     16 S         141.6507  143.3751  160.2717 S.O2    1  UNL1        0.0111
     17 O         142.5539  144.4037  159.6585 O.2     1  UNL1       -0.1686
     18 O         140.7475  142.3465  160.8849 O.2     1  UNL1       -0.1686
     19 C         140.5420  145.5126  162.0610 C.1     1  UNL1        0.1017
     20 N         139.3652  146.3285  161.6145 N.1     1  UNL1       -0.1908
     21 C         140.7346  137.1216  164.6084 C.3     1  UNL1        0.0769
     22 C         139.3879  137.6887  164.9471 C.3     1  UNL1        0.0437
     23 C         139.1522  139.1673  164.8560 C.ar    1  UNL1       -0.0210
     24 C         139.5932  140.0672  165.9720 C.ar    1  UNL1       -0.0040
     25 C         139.3575  141.5458  165.8809 C.ar    1  UNL1        0.0059
     26 C         138.6807  142.1243  164.6737 C.ar    1  UNL1        0.0751
     27 C         138.2397  141.2244  163.5577 C.ar    1  UNL1        0.0272
     28 C         138.4754  139.7459  163.6488 C.ar    1  UNL1       -0.0047
     29 C         137.6024  142.0759  162.5000 C.3     1  UNL1        0.2356
     30 O         137.6496  143.5021  162.9623 O.3     1  UNL1       -0.4404
     31 C         138.3160  143.5321  164.3057 C.2     1  UNL1        0.3413
     32 O         138.5726  144.7550  165.1356 O.2     1  UNL1       -0.2449
@<TRIPOS>BOND
     1    15    16    1
     2    16    17    2
     3    16    18    2
     4    16     9    1
     5     9    10   ar
     6    10    11   ar
     7    11     8    1
     8     8     7    1
     9     7     1    1
    10     1     2    1
    11     2     3    1
    12     3     4    1
    13     4    21    1
    14    21    22    1
    15    22    23    1
    16    23    24   ar
    17    24    25   ar
    18    25    26   ar
    19    26    27   ar
    20    27    28   ar
    21    27    29    1
    22    29    30    1
    23    30    31    1
    24    31    32    2
    25     4     5    1
    26     5     6    1
    27    11    12   ar
    28    12    13   ar
    29    13    14   ar
    30    14    19    1
    31    19    20    3
    32    14     9   ar
    33     6     1    1
    34    28    23   ar
    35    31    26    1
@<TRIPOS>MOLECULE
*****
 32 35 0 0 0
SMALL
GASTEIGER

@<TRIPOS>ATOM
      1 N         144.3106  141.4499  161.8669 N.3     1  UNL1       -0.2700
      2 C         143.5246  140.1724  161.8686 C.3     1  UNL1        0.0897
      3 C         143.5019  139.3074  163.0938 C.3     1  UNL1        0.0897
      4 N         144.2652  139.7200  164.3174 N.3     1  UNL1       -0.2700
      5 C         145.0512  140.9975  164.3157 C.3     1  UNL1        0.0897
      6 C         145.0740  141.8624  163.0905 C.3     1  UNL1        0.0897
      7 C         144.3334  142.3149  160.6416 C.3     1  UNL1        0.0769
      8 C         143.1861  143.2372  160.3532 C.3     1  UNL1        0.0437
      9 C         139.9773  143.2613  162.6882 C.ar    1  UNL1        0.1150
     10 C         140.9303  142.8846  161.5929 C.ar    1  UNL1        0.0148
     11 C         142.2331  143.6139  161.4485 C.ar    1  UNL1       -0.0195
     12 C         142.5829  144.7199  162.3995 C.ar    1  UNL1       -0.0035
     13 C         141.6298  145.0966  163.4949 C.ar    1  UNL1        0.0113
     14 C         140.3270  144.3673  163.6393 C.ar    1  UNL1        0.0855
     15 C         137.3716  141.8027  162.9770 C.3     1  UNL1        0.1816
     16 S         138.6744  142.5320  162.8326 S.O2    1  UNL1        0.0111
     17 O         139.3308  141.5403  163.7467 O.2     1  UNL1       -0.1686
     18 O         138.0180  143.5237  161.9185 O.2     1  UNL1       -0.1686
     19 C         139.3739  144.7440  164.7346 C.1     1  UNL1        0.1017
     20 N         138.4209  145.1207  165.8300 N.1     1  UNL1       -0.1908
     21 C         144.2424  138.8550  165.5427 C.3     1  UNL1        0.0769
     22 C         142.9628  138.6627  166.3014 C.3     1  UNL1        0.0437
     23 C         142.3984  139.7877  167.1174 C.ar    1  UNL1       -0.0210
     24 C         141.7000  140.9290  166.4396 C.ar    1  UNL1       -0.0040
     25 C         141.1357  142.0539  167.2557 C.ar    1  UNL1        0.0059
     26 C         141.2697  142.0375  168.7496 C.ar    1  UNL1        0.0751
     27 C         141.9681  140.8962  169.4274 C.ar    1  UNL1        0.0272
     28 C         142.5324  139.7713  168.6113 C.ar    1  UNL1       -0.0047
     29 C         141.9476  141.1522  170.9052 C.3     1  UNL1        0.2356
     30 O         141.2365  142.4518  171.1408 O.3     1  UNL1       -0.4404
     31 C         140.8175  142.9990  169.8085 C.2     1  UNL1        0.3413
     32 O         140.0765  144.2822  169.5759 O.2     1  UNL1       -0.2449
@<TRIPOS>BOND
     1    15    16    1
     2    16    17    2
     3    16    18    2
     4    16     9    1
     5     9    10   ar
     6    10    11   ar
     7    11     8    1
     8     8     7    1
     9     7     1    1
    10     1     2    1
    11     2     3    1
    12     3     4    1
    13     4    21    1
    14    21    22    1
    15    22    23    1
    16    23    24   ar
    17    24    25   ar
    18    25    26   ar
    19    26    27   ar
    20    27    28   ar
    21    27    29    1
    22    29    30    1
    23    30    31    1
    24    31    32    2
    25     4     5    1
    26     5     6    1
    27    11    12   ar
    28    12    13   ar
    29    13    14   ar
    30    14    19    1
    31    19    20    3
    32    14     9   ar
    33     6     1    1
    34    28    23   ar
    35    31    26    1
@<TRIPOS>MOLECULE
*****
 32 35 0 0 0
SMALL
GASTEIGER

@<TRIPOS>ATOM
      1 N         140.5589  140.4462  167.3273 N.3     1  UNL1       -0.2700
      2 C         141.7286  139.6490  166.8312 C.3     1  UNL1        0.0897
      3 C         142.8884  140.3438  166.1816 C.3     1  UNL1        0.0897
      4 N         142.8785  141.8359  166.0282 N.3     1  UNL1       -0.2700
      5 C         141.7088  142.6332  166.5242 C.3     1  UNL1        0.0897
      6 C         140.5490  141.9383  167.1738 C.3     1  UNL1        0.0897
      7 C         139.3990  139.7514  167.9769 C.3     1  UNL1        0.0769
      8 C         138.3397  139.1095  167.1308 C.3     1  UNL1        0.0437
      9 C         138.4672  140.2967  163.3461 C.ar    1  UNL1        0.1150
     10 C         138.3165  140.3313  164.8380 C.ar    1  UNL1        0.0148
     11 C         138.4904  139.0749  165.6388 C.ar    1  UNL1       -0.0195
     12 C         138.8150  137.7838  164.9476 C.ar    1  UNL1       -0.0035
     13 C         138.9658  137.7492  163.4555 C.ar    1  UNL1        0.0113
     14 C         138.7919  139.0056  162.6548 C.ar    1  UNL1        0.0855
     15 C         138.1194  142.8095  161.7445 C.3     1  UNL1        0.1816
     16 S         138.2933  141.5531  162.5452 S.O2    1  UNL1        0.0111
     17 O         136.8140  141.3117  162.4877 O.2     1  UNL1       -0.1686
     18 O         139.7726  141.7944  162.6027 O.2     1  UNL1       -0.1686
     19 C         138.9426  138.9710  161.1627 C.1     1  UNL1        0.1017
     20 N         139.0933  138.9364  159.6708 N.1     1  UNL1       -0.1908
     21 C         144.0384  142.5308  165.3786 C.3     1  UNL1        0.0769
     22 C         143.8702  143.9158  164.8279 C.3     1  UNL1        0.0437
     23 C         143.0774  144.1330  163.5732 C.ar    1  UNL1       -0.0210
     24 C         143.4518  143.4082  162.3145 C.ar    1  UNL1       -0.0040
     25 C         142.6590  143.6254  161.0599 C.ar    1  UNL1        0.0059
     26 C         141.4917  144.5674  161.0639 C.ar    1  UNL1        0.0751
     27 C         141.1173  145.2923  162.3226 C.ar    1  UNL1        0.0272
     28 C         141.9101  145.0751  163.5772 C.ar    1  UNL1       -0.0047
     29 C         139.9253  146.1528  162.0248 C.3     1  UNL1        0.2356
     30 O         139.5631  145.9598  160.5820 O.3     1  UNL1       -0.4404
     31 C         140.5311  144.9800  159.9881 C.2     1  UNL1        0.3413
     32 O         140.5376  144.4974  158.5679 O.2     1  UNL1       -0.2449
@<TRIPOS>BOND
     1    15    16    1
     2    16    17    2
     3    16    18    2
     4    16     9    1
     5     9    10   ar
     6    10    11   ar
     7    11     8    1
     8     8     7    1
     9     7     1    1
    10     1     2    1
    11     2     3    1
    12     3     4    1
    13     4    21    1
    14    21    22    1
    15    22    23    1
    16    23    24   ar
    17    24    25   ar
    18    25    26   ar
    19    26    27   ar
    20    27    28   ar
    21    27    29    1
    22    29    30    1
    23    30    31    1
    24    31    32    2
    25     4     5    1
    26     5     6    1
    27    11    12   ar
    28    12    13   ar
    29    13    14   ar
    30    14    19    1
    31    19    20    3
    32    14     9   ar
    33     6     1    1
    34    28    23   ar
    35    31    26    1
@<TRIPOS>MOLECULE
*****
 32 35 0 0 0
SMALL
GASTEIGER

@<TRIPOS>ATOM
      1 N         139.6736  138.7716  161.8908 N.3     1  UNL1       -0.2700
      2 C         139.2511  137.8780  163.0190 C.3     1  UNL1        0.0897
      3 C         140.1691  137.6566  164.1844 C.3     1  UNL1        0.0897
      4 N         141.5096  138.3287  164.2216 N.3     1  UNL1       -0.2700
      5 C         141.9321  139.2223  163.0933 C.3     1  UNL1        0.0897
      6 C         141.0141  139.4438  161.9279 C.3     1  UNL1        0.0897
      7 C         138.7556  138.9931  160.7253 C.3     1  UNL1        0.0769
      8 C         137.9887  140.2769  160.6080 C.3     1  UNL1        0.0437
      9 C         138.8874  143.5761  162.6224 C.ar    1  UNL1        0.1150
     10 C         138.8250  142.5618  161.5191 C.ar    1  UNL1        0.0148
     11 C         138.0511  141.2912  161.7113 C.ar    1  UNL1       -0.0195
     12 C         137.3398  141.0350  163.0068 C.ar    1  UNL1       -0.0035
     13 C         137.4022  142.0494  164.1101 C.ar    1  UNL1        0.0113
     14 C         138.1760  143.3199  163.9179 C.ar    1  UNL1        0.0855
     15 C         140.4349  146.1173  162.2380 C.3     1  UNL1        0.1816
     16 S         139.6612  144.8467  162.4302 S.O2    1  UNL1        0.0111
     17 O         140.9279  144.1303  162.7935 O.2     1  UNL1       -0.1686
     18 O         138.3945  145.5632  162.0669 O.2     1  UNL1       -0.1686
     19 C         138.2384  144.3343  165.0212 C.1     1  UNL1        0.1017
     20 N         138.3009  145.3486  166.1244 N.1     1  UNL1       -0.1908
     21 C         142.4276  138.1072  165.3870 C.3     1  UNL1        0.0769
     22 C         143.1355  139.2705  166.0158 C.3     1  UNL1        0.0437
     23 C         142.5302  139.9666  167.1988 C.ar    1  UNL1       -0.0210
     24 C         142.7073  139.3975  168.5753 C.ar    1  UNL1       -0.0040
     25 C         142.1020  140.0936  169.7581 C.ar    1  UNL1        0.0059
     26 C         141.3196  141.3586  169.5644 C.ar    1  UNL1        0.0751
     27 C         141.1425  141.9276  168.1879 C.ar    1  UNL1        0.0272
     28 C         141.7478  141.2316  167.0051 C.ar    1  UNL1       -0.0047
     29 C         140.3258  143.1803  168.3057 C.3     1  UNL1        0.2356
     30 O         139.9981  143.3854  169.7550 O.3     1  UNL1       -0.4404
     31 C         140.6123  142.2596  170.5330 C.2     1  UNL1        0.3413
     32 O         140.5331  142.0683  172.0186 O.2     1  UNL1       -0.2449
@<TRIPOS>BOND
     1    15    16    1
     2    16    17    2
     3    16    18    2
     4    16     9    1
     5     9    10   ar
     6    10    11   ar
     7    11     8    1
     8     8     7    1
     9     7     1    1
    10     1     2    1
    11     2     3    1
    12     3     4    1
    13     4    21    1
    14    21    22    1
    15    22    23    1
    16    23    24   ar
    17    24    25   ar
    18    25    26   ar
    19    26    27   ar
    20    27    28   ar
    21    27    29    1
    22    29    30    1
    23    30    31    1
    24    31    32    2
    25     4     5    1
    26     5     6    1
    27    11    12   ar
    28    12    13   ar
    29    13    14   ar
    30    14    19    1
    31    19    20    3
    32    14     9   ar
    33     6     1    1
    34    28    23   ar
    35    31    26    1
@<TRIPOS>MOLECULE
*****
 32 35 0 0 0
SMALL
GASTEIGER

@<TRIPOS>ATOM
      1 N         141.0810  137.9679  162.2000 N.3     1  UNL1       -0.2700
      2 C         141.4985  137.2972  163.4750 C.3     1  UNL1        0.0897
      3 C         140.5943  137.3314  164.6713 C.3     1  UNL1        0.0897
      4 N         139.2726  138.0362  164.5926 N.3     1  UNL1       -0.2700
      5 C         138.8551  138.7069  163.3175 C.3     1  UNL1        0.0897
      6 C         139.7593  138.6728  162.1212 C.3     1  UNL1        0.0897
      7 C         141.9852  137.9337  161.0036 C.3     1  UNL1        0.0769
      8 C         143.3715  138.4993  161.0948 C.3     1  UNL1        0.0437
      9 C         143.3262  142.0678  162.8307 C.ar    1  UNL1        0.1150
     10 C         143.0315  140.9564  161.8674 C.ar    1  UNL1        0.0148
     11 C         143.6661  139.6107  162.0581 C.ar    1  UNL1       -0.0195
     12 C         144.5954  139.3764  163.2120 C.ar    1  UNL1       -0.0035
     13 C         144.8900  140.4879  164.1753 C.ar    1  UNL1        0.0113
     14 C         144.2554  141.8335  163.9847 C.ar    1  UNL1        0.0855
     15 C         142.0570  144.7593  162.4495 C.3     1  UNL1        0.1816
     16 S         142.6916  143.4136  162.6401 S.O2    1  UNL1        0.0111
     17 O         143.8471  143.8370  161.7825 O.2     1  UNL1       -0.1686
     18 O         141.5361  142.9901  163.4976 O.2     1  UNL1       -0.1686
     19 C         144.5501  142.9450  164.9480 C.1     1  UNL1        0.1017
     20 N         144.8447  144.0565  165.9112 N.1     1  UNL1       -0.1908
     21 C         138.3684  138.0704  165.7890 C.3     1  UNL1        0.0769
     22 C         138.1653  139.3533  166.5392 C.3     1  UNL1        0.0437
     23 C         139.3320  140.0326  167.1930 C.ar    1  UNL1       -0.0210
     24 C         140.3689  140.7168  166.3525 C.ar    1  UNL1       -0.0040
     25 C         141.5356  141.3961  167.0063 C.ar    1  UNL1        0.0059
     26 C         141.6653  141.3910  168.5006 C.ar    1  UNL1        0.0751
     27 C         140.6285  140.7067  169.3412 C.ar    1  UNL1        0.0272
     28 C         139.4618  140.0275  168.6874 C.ar    1  UNL1       -0.0047
     29 C         141.0200  140.8655  170.7805 C.3     1  UNL1        0.2356
     30 O         142.2988  141.6479  170.8294 O.3     1  UNL1       -0.4404
     31 C         142.6977  141.9727  169.4204 C.2     1  UNL1        0.3413
     32 O         143.9152  142.7438  169.0042 O.2     1  UNL1       -0.2449
@<TRIPOS>BOND
     1    15    16    1
     2    16    17    2
     3    16    18    2
     4    16     9    1
     5     9    10   ar
     6    10    11   ar
     7    11     8    1
     8     8     7    1
     9     7     1    1
    10     1     2    1
    11     2     3    1
    12     3     4    1
    13     4    21    1
    14    21    22    1
    15    22    23    1
    16    23    24   ar
    17    24    25   ar
    18    25    26   ar
    19    26    27   ar
    20    27    28   ar
    21    27    29    1
    22    29    30    1
    23    30    31    1
    24    31    32    2
    25     4     5    1
    26     5     6    1
    27    11    12   ar
    28    12    13   ar
    29    13    14   ar
    30    14    19    1
    31    19    20    3
    32    14     9   ar
    33     6     1    1
    34    28    23   ar
    35    31    26    1
@<TRIPOS>MOLECULE
*****
 32 35 0 0 0
SMALL
GASTEIGER

@<TRIPOS>ATOM
      1 N         138.3106  141.3442  164.0951 N.3     1  UNL1       -0.2700
      2 C         138.2981  142.5812  164.9433 C.3     1  UNL1        0.0897
      3 C         138.5170  143.9247  164.3133 C.3     1  UNL1        0.0897
      4 N         138.7485  144.0312  162.8350 N.3     1  UNL1       -0.2700
      5 C         138.7610  142.7941  161.9869 C.3     1  UNL1        0.0897
      6 C         138.5420  141.4506  162.6169 C.3     1  UNL1        0.0897
      7 C         138.0917  140.0006  164.7252 C.3     1  UNL1        0.0769
      8 C         139.2510  139.2469  165.3065 C.3     1  UNL1        0.0437
      9 C         140.7950  141.3869  168.2707 C.ar    1  UNL1        0.1150
     10 C         139.7959  140.6762  167.4066 C.ar    1  UNL1        0.0148
     11 C         140.2500  139.9577  166.1706 C.ar    1  UNL1       -0.0195
     12 C         141.7032  139.9500  165.7987 C.ar    1  UNL1       -0.0035
     13 C         142.7022  140.6609  166.6629 C.ar    1  UNL1        0.0113
     14 C         142.2481  141.3793  167.8988 C.ar    1  UNL1        0.0855
     15 C         139.8869  142.8239  170.7427 C.3     1  UNL1        0.1816
     16 S         140.3409  142.1054  169.5067 S.O2    1  UNL1        0.0111
     17 O         140.4268  140.8247  170.2828 O.2     1  UNL1       -0.1686
     18 O         140.2550  143.3861  168.7306 O.2     1  UNL1       -0.1686
     19 C         143.2472  142.0901  168.7630 C.1     1  UNL1        0.1017
     20 N         144.2462  142.8009  169.6271 N.1     1  UNL1       -0.1908
     21 C         138.9674  145.3748  162.2050 C.3     1  UNL1        0.0769
     22 C         140.3571  145.9233  162.0721 C.3     1  UNL1        0.0437
     23 C         141.5404  145.0427  162.3451 C.ar    1  UNL1       -0.0210
     24 C         142.1338  144.2199  161.2402 C.ar    1  UNL1       -0.0040
     25 C         143.3169  143.3393  161.5132 C.ar    1  UNL1        0.0059
     26 C         143.9068  143.2815  162.8912 C.ar    1  UNL1        0.0751
     27 C         143.3134  144.1043  163.9961 C.ar    1  UNL1        0.0272
     28 C         142.1302  144.9849  163.7231 C.ar    1  UNL1       -0.0047
     29 C         144.1036  143.8433  165.2441 C.3     1  UNL1        0.2356
     30 O         145.1854  142.8591  164.9104 O.3     1  UNL1       -0.4404
     31 C         145.0637  142.5119  163.4563 C.2     1  UNL1        0.3413
     32 O         145.9444  141.5620  162.6999 O.2     1  UNL1       -0.2449
@<TRIPOS>BOND
     1    15    16    1
     2    16    17    2
     3    16    18    2
     4    16     9    1
     5     9    10   ar
     6    10    11   ar
     7    11     8    1
     8     8     7    1
     9     7     1    1
    10     1     2    1
    11     2     3    1
    12     3     4    1
    13     4    21    1
    14    21    22    1
    15    22    23    1
    16    23    24   ar
    17    24    25   ar
    18    25    26   ar
    19    26    27   ar
    20    27    28   ar
    21    27    29    1
    22    29    30    1
    23    30    31    1
    24    31    32    2
    25     4     5    1
    26     5     6    1
    27    11    12   ar
    28    12    13   ar
    29    13    14   ar
    30    14    19    1
    31    19    20    3
    32    14     9   ar
    33     6     1    1
    34    28    23   ar
    35    31    26    1
@<TRIPOS>MOLECULE
*****
 32 35 0 0 0
SMALL
GASTEIGER

@<TRIPOS>ATOM
      1 N         138.0488  143.1654  162.4992 N.3     1  UNL1       -0.2700
      2 C         137.7247  142.2244  163.6215 C.3     1  UNL1        0.0897
      3 C         137.6249  140.7509  163.3595 C.3     1  UNL1        0.0897
      4 N         137.8492  140.2183  161.9753 N.3     1  UNL1       -0.2700
      5 C         138.1733  141.1593  160.8530 C.3     1  UNL1        0.0897
      6 C         138.2731  142.6328  161.1150 C.3     1  UNL1        0.0897
      7 C         138.1486  144.6390  162.7612 C.3     1  UNL1        0.0769
      8 C         139.4239  145.3695  162.4610 C.3     1  UNL1        0.0437
      9 C         142.5075  143.3757  163.9662 C.ar    1  UNL1        0.1150
     10 C         141.1929  144.0916  163.8709 C.ar    1  UNL1        0.0148
     11 C         140.7385  144.6535  162.5563 C.ar    1  UNL1       -0.0195
     12 C         141.5987  144.4994  161.3372 C.ar    1  UNL1       -0.0035
     13 C         142.9134  143.7834  161.4327 C.ar    1  UNL1        0.0113
     14 C         143.3678  143.2216  162.7471 C.ar    1  UNL1        0.0855
     15 C         143.4164  142.2520  166.5952 C.3     1  UNL1        0.1816
     16 S         142.9620  142.8138  165.2807 S.O2    1  UNL1        0.0111
     17 O         141.9394  141.7222  165.1677 O.2     1  UNL1       -0.1686
     18 O         143.9845  143.9054  165.3938 O.2     1  UNL1       -0.1686
     19 C         144.6825  142.5056  162.8425 C.1     1  UNL1        0.1017
     20 N         145.9971  141.7896  162.9380 N.1     1  UNL1       -0.1908
     21 C         137.7494  138.7447  161.7134 C.3     1  UNL1        0.0769
     22 C         138.9941  137.9119  161.6292 C.3     1  UNL1        0.0437
     23 C         140.0598  138.0479  162.6761 C.ar    1  UNL1       -0.0210
     24 C         139.7390  137.7653  164.1139 C.ar    1  UNL1       -0.0040
     25 C         140.8047  137.9014  165.1607 C.ar    1  UNL1        0.0059
     26 C         142.1910  138.3199  164.7698 C.ar    1  UNL1        0.0751
     27 C         142.5117  138.6025  163.3320 C.ar    1  UNL1        0.0272
     28 C         141.4461  138.4665  162.2852 C.ar    1  UNL1       -0.0047
     29 C         143.9572  138.9944  163.2479 C.3     1  UNL1        0.2356
     30 O         144.5298  138.9540  164.6337 O.3     1  UNL1       -0.4404
     31 C         143.4383  138.5371  165.5743 C.2     1  UNL1        0.3413
     32 O         143.5707  138.3673  167.0588 O.2     1  UNL1       -0.2449
@<TRIPOS>BOND
     1    15    16    1
     2    16    17    2
     3    16    18    2
     4    16     9    1
     5     9    10   ar
     6    10    11   ar
     7    11     8    1
     8     8     7    1
     9     7     1    1
    10     1     2    1
    11     2     3    1
    12     3     4    1
    13     4    21    1
    14    21    22    1
    15    22    23    1
    16    23    24   ar
    17    24    25   ar
    18    25    26   ar
    19    26    27   ar
    20    27    28   ar
    21    27    29    1
    22    29    30    1
    23    30    31    1
    24    31    32    2
    25     4     5    1
    26     5     6    1
    27    11    12   ar
    28    12    13   ar
    29    13    14   ar
    30    14    19    1
    31    19    20    3
    32    14     9   ar
    33     6     1    1
    34    28    23   ar
    35    31    26    1
@<TRIPOS>MOLECULE
*****
 32 35 0 0 0
SMALL
GASTEIGER

@<TRIPOS>ATOM
      1 N         142.2140  144.6692  161.6529 N.3     1  UNL1       -0.2700
      2 C         142.6419  143.5657  160.7313 C.3     1  UNL1        0.0897
      3 C         143.7967  142.6837  161.1030 C.3     1  UNL1        0.0897
      4 N         144.5238  142.9051  162.3962 N.3     1  UNL1       -0.2700
      5 C         144.0960  144.0085  163.3177 C.3     1  UNL1        0.0897
      6 C         142.9411  144.8906  162.9461 C.3     1  UNL1        0.0897
      7 C         141.0591  145.5513  161.2812 C.3     1  UNL1        0.0769
      8 C         139.8081  145.5375  162.1087 C.3     1  UNL1        0.0437
      9 C         138.6570  141.8472  163.0069 C.ar    1  UNL1        0.1150
     10 C         139.0145  143.0656  162.2083 C.ar    1  UNL1        0.0148
     11 C         139.4506  144.3191  162.9073 C.ar    1  UNL1       -0.0195
     12 C         139.5292  144.3542  164.4048 C.ar    1  UNL1       -0.0035
     13 C         139.1717  143.1358  165.2034 C.ar    1  UNL1        0.0113
     14 C         138.7356  141.8823  164.5044 C.ar    1  UNL1        0.0855
     15 C         137.7847  139.3402  161.6090 C.3     1  UNL1        0.1816
     16 S         138.2208  140.5937  162.3079 S.O2    1  UNL1        0.0111
     17 O         136.7900  141.0304  162.4175 O.2     1  UNL1       -0.1686
     18 O         139.6516  140.1570  162.1984 O.2     1  UNL1       -0.1686
     19 C         138.3780  140.6639  165.3030 C.1     1  UNL1        0.1017
     20 N         138.0205  139.4455  166.1015 N.1     1  UNL1       -0.1908
     21 C         145.6787  142.0229  162.7679 C.3     1  UNL1        0.0769
     22 C         145.5533  141.0678  163.9176 C.3     1  UNL1        0.0437
     23 C         144.3570  140.1686  164.0186 C.ar    1  UNL1       -0.0210
     24 C         143.6200  140.0440  165.3191 C.ar    1  UNL1       -0.0040
     25 C         142.4237  139.1448  165.4200 C.ar    1  UNL1        0.0059
     26 C         141.9644  138.3701  164.2204 C.ar    1  UNL1        0.0751
     27 C         142.7013  138.4947  162.9199 C.ar    1  UNL1        0.0272
     28 C         143.8976  139.3939  162.8190 C.ar    1  UNL1       -0.0047
     29 C         142.0199  137.6141  161.9149 C.3     1  UNL1        0.2356
     30 O         140.8618  136.9453  162.5942 O.3     1  UNL1       -0.4404
     31 C         140.8274  137.4125  164.0191 C.2     1  UNL1        0.3413
     32 O         139.8312  136.9954  165.0600 O.2     1  UNL1       -0.2449
@<TRIPOS>BOND
     1    15    16    1
     2    16    17    2
     3    16    18    2
     4    16     9    1
     5     9    10   ar
     6    10    11   ar
     7    11     8    1
     8     8     7    1
     9     7     1    1
    10     1     2    1
    11     2     3    1
    12     3     4    1
    13     4    21    1
    14    21    22    1
    15    22    23    1
    16    23    24   ar
    17    24    25   ar
    18    25    26   ar
    19    26    27   ar
    20    27    28   ar
    21    27    29    1
    22    29    30    1
    23    30    31    1
    24    31    32    2
    25     4     5    1
    26     5     6    1
    27    11    12   ar
    28    12    13   ar
    29    13    14   ar
    30    14    19    1
    31    19    20    3
    32    14     9   ar
    33     6     1    1
    34    28    23   ar
    35    31    26    1
@<TRIPOS>MOLECULE
*****
 32 35 0 0 0
SMALL
GASTEIGER

@<TRIPOS>ATOM
      1 N         144.7142  141.6615  163.4670 N.3     1  UNL1       -0.2700
      2 C         144.4160  141.8078  162.0043 C.3     1  UNL1        0.0897
      3 C         144.1100  140.5951  161.1763 C.3     1  UNL1        0.0897
      4 N         144.1024  139.2360  161.8110 N.3     1  UNL1       -0.2700
      5 C         144.4006  139.0897  163.2737 C.3     1  UNL1        0.0897
      6 C         144.7066  140.3024  164.1017 C.3     1  UNL1        0.0897
      7 C         145.0202  142.8742  164.2951 C.3     1  UNL1        0.0769
      8 C         143.9201  143.5711  165.0395 C.3     1  UNL1        0.0437
      9 C         142.1916  141.3633  167.8480 C.ar    1  UNL1        0.1150
     10 C         143.2222  142.1648  167.1097 C.ar    1  UNL1        0.0148
     11 C         142.8895  142.7696  165.7779 C.ar    1  UNL1       -0.0195
     12 C         141.5259  142.5727  165.1845 C.ar    1  UNL1       -0.0035
     13 C         140.4952  141.7711  165.9229 C.ar    1  UNL1        0.0113
     14 C         140.8281  141.1664  167.2546 C.ar    1  UNL1        0.0855
     15 C         142.8571  140.1538  170.5115 C.3     1  UNL1        0.1816
     16 S         142.5244  140.7585  169.1798 S.O2    1  UNL1        0.0111
     17 O         142.0999  142.0255  169.8613 O.2     1  UNL1       -0.1686
     18 O         142.9488  139.4915  168.4983 O.2     1  UNL1       -0.1686
     19 C         139.7973  140.3649  167.9930 C.1     1  UNL1        0.1017
     20 N         138.7667  139.5633  168.7314 N.1     1  UNL1       -0.1908
     21 C         143.7964  138.0232  160.9829 C.3     1  UNL1        0.0769
     22 C         142.3718  137.6387  160.7139 C.3     1  UNL1        0.0437
     23 C         141.2532  138.4282  161.3268 C.ar    1  UNL1       -0.0210
     24 C         140.6369  139.5674  160.5703 C.ar    1  UNL1       -0.0040
     25 C         139.5185  140.3568  161.1833 C.ar    1  UNL1        0.0059
     26 C         139.0163  140.0070  162.5528 C.ar    1  UNL1        0.0751
     27 C         139.6325  138.8678  163.3093 C.ar    1  UNL1        0.0272
     28 C         140.7510  138.0784  162.6963 C.ar    1  UNL1       -0.0047
     29 C         138.9331  138.7572  164.6316 C.3     1  UNL1        0.2356
     30 O         137.8845  139.8281  164.6923 O.3     1  UNL1       -0.4404
     31 C         137.9359  140.6006  163.4075 C.2     1  UNL1        0.3413
     32 O         137.0606  141.7625  163.0417 O.2     1  UNL1       -0.2449
@<TRIPOS>BOND
     1    15    16    1
     2    16    17    2
     3    16    18    2
     4    16     9    1
     5     9    10   ar
     6    10    11   ar
     7    11     8    1
     8     8     7    1
     9     7     1    1
    10     1     2    1
    11     2     3    1
    12     3     4    1
    13     4    21    1
    14    21    22    1
    15    22    23    1
    16    23    24   ar
    17    24    25   ar
    18    25    26   ar
    19    26    27   ar
    20    27    28   ar
    21    27    29    1
    22    29    30    1
    23    30    31    1
    24    31    32    2
    25     4     5    1
    26     5     6    1
    27    11    12   ar
    28    12    13   ar
    29    13    14   ar
    30    14    19    1
    31    19    20    3
    32    14     9   ar
    33     6     1    1
    34    28    23   ar
    35    31    26    1
