@<TRIPOS>MOLECULE
*****
 21 24 0 0 0
SMALL
GASTEIGER

@<TRIPOS>ATOM
      1 N         144.4790  139.3355  161.7305 N.pl3   1  UNL1       -0.2513
      2 C         143.2283  138.8386  162.3931 C.cat   1  UNL1        0.3712
      3 N         142.4180  137.6499  161.9683 N.2     1  UNL1       -0.0974
      4 C         141.2573  137.5199  162.9095 C.3     1  UNL1        0.2614
      5 C         141.3502  138.6283  163.9159 C.3     1  UNL1        0.2036
      6 C         140.3576  138.8241  165.0234 C.ar    1  UNL1        0.0118
      7 C         139.2815  137.7799  164.9858 C.ar    1  UNL1       -0.0014
      8 C         138.1858  137.7950  166.0101 C.ar    1  UNL1       -0.0002
      9 C         138.1662  138.8543  167.0719 C.ar    1  UNL1       -0.0003
     10 C         139.2423  139.8986  167.1094 C.ar    1  UNL1       -0.0041
     11 C         140.3380  139.8835  166.0852 C.ar    1  UNL1       -0.0186
     12 C         141.3062  141.0085  166.3017 C.3     1  UNL1        0.0551
     13 C         142.5331  141.3522  165.5101 C.ar    1  UNL1        0.0111
     14 C         143.2233  142.5621  166.0664 C.ar    1  UNL1       -0.0013
     15 C         144.4752  143.0755  165.4189 C.ar    1  UNL1       -0.0001
     16 C         145.0369  142.3789  164.2152 C.ar    1  UNL1        0.0027
     17 C         144.3467  141.1689  163.6588 C.ar    1  UNL1        0.0311
     18 C         143.0948  140.6555  164.3062 C.ar    1  UNL1        0.1086
     19 N         142.5684  139.4432  163.5967 N.pl3   1  UNL1       -0.1740
     20 H         144.8366  138.8685  160.9410 H       1  UNL1        0.2412
     21 H         144.9422  140.1285  162.0851 H       1  UNL1        0.2412
@<TRIPOS>BOND
     1     1     2    1
     2     2     3    2
     3     3     4    1
     4     4     5    1
     5     5     6    1
     6     6     7   ar
     7     7     8   ar
     8     8     9   ar
     9     9    10   ar
    10    10    11   ar
    11    11    12    1
    12    12    13    1
    13    13    14   ar
    14    14    15   ar
    15    15    16   ar
    16    16    17   ar
    17    17    18   ar
    18    18    19    1
    19    19     2    1
    20    19     5    1
    21    11     6   ar
    22    18    13   ar
    23     1    20    1
    24     1    21    1
@<TRIPOS>MOLECULE
*****
 21 24 0 0 0
SMALL
GASTEIGER

@<TRIPOS>ATOM
      1 N         140.0639  146.1373  162.4652 N.pl3   1  UNL1       -0.2513
      2 C         139.4230  144.8756  162.9627 C.cat   1  UNL1        0.3712
      3 N         137.9995  144.4610  162.7357 N.2     1  UNL1       -0.0974
      4 C         137.7897  143.1362  163.4073 C.3     1  UNL1        0.2614
      5 C         139.0838  142.7321  164.0494 C.3     1  UNL1        0.2036
      6 C         139.2617  141.4565  164.8183 C.ar    1  UNL1        0.0118
      7 C         137.9928  140.6575  164.8555 C.ar    1  UNL1       -0.0014
      8 C         137.9552  139.3429  165.5768 C.ar    1  UNL1       -0.0002
      9 C         139.1865  138.8273  166.2609 C.ar    1  UNL1       -0.0003
     10 C         140.4554  139.6262  166.2237 C.ar    1  UNL1       -0.0041
     11 C         140.4930  140.9409  165.5024 C.ar    1  UNL1       -0.0186
     12 C         141.8505  141.5735  165.5865 C.3     1  UNL1        0.0551
     13 C         142.3120  142.8779  165.0073 C.ar    1  UNL1        0.0111
     14 C         143.7542  143.1394  165.3258 C.ar    1  UNL1       -0.0013
     15 C         144.4144  144.3948  164.8379 C.ar    1  UNL1       -0.0001
     16 C         143.6324  145.3888  164.0316 C.ar    1  UNL1        0.0027
     17 C         142.1900  145.1274  163.7131 C.ar    1  UNL1        0.0311
     18 C         141.5298  143.8720  164.2009 C.ar    1  UNL1        0.1086
     19 N         140.0931  143.8071  163.7746 N.pl3   1  UNL1       -0.1740
     20 H         139.5387  146.7810  161.9370 H       1  UNL1        0.2412
     21 H         141.0098  146.3216  162.6669 H       1  UNL1        0.2412
@<TRIPOS>BOND
     1     1     2    1
     2     2     3    2
     3     3     4    1
     4     4     5    1
     5     5     6    1
     6     6     7   ar
     7     7     8   ar
     8     8     9   ar
     9     9    10   ar
    10    10    11   ar
    11    11    12    1
    12    12    13    1
    13    13    14   ar
    14    14    15   ar
    15    15    16   ar
    16    16    17   ar
    17    17    18   ar
    18    18    19    1
    19    19     2    1
    20    19     5    1
    21    11     6   ar
    22    18    13   ar
    23     1    20    1
    24     1    21    1
@<TRIPOS>MOLECULE
*****
 21 24 0 0 0
SMALL
GASTEIGER

@<TRIPOS>ATOM
      1 N         145.9303  141.7376  163.8081 N.pl3   1  UNL1       -0.2513
      2 C         144.7938  140.8143  164.1336 C.cat   1  UNL1        0.3712
      3 N         144.8942  139.3326  164.3442 N.2     1  UNL1       -0.0974
      4 C         143.5198  138.8131  164.6463 C.3     1  UNL1        0.2614
      5 C         142.5700  139.9739  164.6224 C.3     1  UNL1        0.2036
      6 C         141.0983  139.8427  164.8808 C.ar    1  UNL1        0.0118
      7 C         140.7157  138.4196  165.1606 C.ar    1  UNL1       -0.0014
      8 C         139.2852  138.0698  165.4459 C.ar    1  UNL1       -0.0002
      9 C         138.2374  139.1431  165.4512 C.ar    1  UNL1       -0.0003
     10 C         138.6199  140.5662  165.1713 C.ar    1  UNL1       -0.0041
     11 C         140.0504  140.9160  164.8861 C.ar    1  UNL1       -0.0186
     12 C         140.2155  142.3855  164.6344 C.3     1  UNL1        0.0551
     13 C         141.4692  143.1447  164.3151 C.ar    1  UNL1        0.0111
     14 C         141.1931  144.6081  164.1358 C.ar    1  UNL1       -0.0013
     15 C         142.3153  145.5486  163.8100 C.ar    1  UNL1       -0.0001
     16 C         143.7135  145.0258  163.6636 C.ar    1  UNL1        0.0027
     17 C         143.9896  143.5623  163.8430 C.ar    1  UNL1        0.0311
     18 C         142.8675  142.6218  164.1688 C.ar    1  UNL1        0.1086
     19 N         143.3574  141.2106  164.3055 N.pl3   1  UNL1       -0.1740
     20 H         146.8432  141.3808  163.7149 H       1  UNL1        0.2412
     21 H         145.7634  142.7004  163.6877 H       1  UNL1        0.2412
@<TRIPOS>BOND
     1     1     2    1
     2     2     3    2
     3     3     4    1
     4     4     5    1
     5     5     6    1
     6     6     7   ar
     7     7     8   ar
     8     8     9   ar
     9     9    10   ar
    10    10    11   ar
    11    11    12    1
    12    12    13    1
    13    13    14   ar
    14    14    15   ar
    15    15    16   ar
    16    16    17   ar
    17    17    18   ar
    18    18    19    1
    19    19     2    1
    20    19     5    1
    21    11     6   ar
    22    18    13   ar
    23     1    20    1
    24     1    21    1
@<TRIPOS>MOLECULE
*****
 21 24 0 0 0
SMALL
GASTEIGER

@<TRIPOS>ATOM
      1 N         136.7934  141.1259  163.1113 N.pl3   1  UNL1       -0.2513
      2 C         137.9173  142.1120  163.2324 C.cat   1  UNL1        0.3712
      3 N         137.8471  143.5736  162.9028 N.2     1  UNL1       -0.0974
      4 C         139.1950  144.1746  163.1710 C.3     1  UNL1        0.2614
      5 C         140.0983  143.0842  163.6664 C.3     1  UNL1        0.2036
      6 C         141.5338  143.3066  164.0403 C.ar    1  UNL1        0.0118
      7 C         141.9328  144.7405  163.8541 C.ar    1  UNL1       -0.0014
      8 C         143.3322  145.1769  164.1722 C.ar    1  UNL1       -0.0002
      9 C         144.3326  144.1794  164.6765 C.ar    1  UNL1       -0.0003
     10 C         143.9336  142.7456  164.8626 C.ar    1  UNL1       -0.0041
     11 C         142.5342  142.3091  164.5445 C.ar    1  UNL1       -0.0186
     12 C         142.3460  140.8430  164.7994 C.3     1  UNL1        0.0551
     13 C         141.1112  140.0121  164.6129 C.ar    1  UNL1        0.0111
     14 C         141.3528  138.5796  164.9866 C.ar    1  UNL1       -0.0013
     15 C         140.2426  137.5774  164.8730 C.ar    1  UNL1       -0.0001
     16 C         138.8908  138.0075  164.3857 C.ar    1  UNL1        0.0027
     17 C         138.6492  139.4400  164.0119 C.ar    1  UNL1        0.0311
     18 C         139.7593  140.4423  164.1256 C.ar    1  UNL1        0.1086
     19 N         139.3085  141.8096  163.7043 N.pl3   1  UNL1       -0.1740
     20 H         135.9112  141.4220  162.7900 H       1  UNL1        0.2412
     21 H         136.9380  140.1826  163.3531 H       1  UNL1        0.2412
@<TRIPOS>BOND
     1     1     2    1
     2     2     3    2
     3     3     4    1
     4     4     5    1
     5     5     6    1
     6     6     7   ar
     7     7     8   ar
     8     8     9   ar
     9     9    10   ar
    10    10    11   ar
    11    11    12    1
    12    12    13    1
    13    13    14   ar
    14    14    15   ar
    15    15    16   ar
    16    16    17   ar
    17    17    18   ar
    18    18    19    1
    19    19     2    1
    20    19     5    1
    21    11     6   ar
    22    18    13   ar
    23     1    20    1
    24     1    21    1
@<TRIPOS>MOLECULE
*****
 21 24 0 0 0
SMALL
GASTEIGER

@<TRIPOS>ATOM
      1 N         137.7566  143.4402  161.5607 N.pl3   1  UNL1       -0.2513
      2 C         138.3720  143.4844  162.9280 C.cat   1  UNL1        0.3712
      3 N         138.7018  144.7232  163.7068 N.2     1  UNL1       -0.0974
      4 C         139.2992  144.3019  165.0166 C.3     1  UNL1        0.2614
      5 C         139.3387  142.8027  165.0472 C.3     1  UNL1        0.2036
      6 C         139.8741  142.0137  166.2052 C.ar    1  UNL1        0.0118
      7 C         140.3545  142.9128  167.3056 C.ar    1  UNL1       -0.0014
      8 C         140.9295  142.3227  168.5590 C.ar    1  UNL1       -0.0002
      9 C         141.0240  140.8335  168.7121 C.ar    1  UNL1       -0.0003
     10 C         140.5435  139.9345  167.6118 C.ar    1  UNL1       -0.0041
     11 C         139.9685  140.5246  166.3583 C.ar    1  UNL1       -0.0186
     12 C         139.5510  139.4567  165.3912 C.3     1  UNL1        0.0551
     13 C         138.9359  139.6140  164.0322 C.ar    1  UNL1        0.0111
     14 C         138.6707  138.2832  163.3932 C.ar    1  UNL1       -0.0013
     15 C         138.0560  138.2166  162.0265 C.ar    1  UNL1       -0.0001
     16 C         137.7065  139.4809  161.2990 C.ar    1  UNL1        0.0027
     17 C         137.9717  140.8118  161.9380 C.ar    1  UNL1        0.0311
     18 C         138.5864  140.8784  163.3047 C.ar    1  UNL1        0.1086
     19 N         138.7656  142.2975  163.7564 N.pl3   1  UNL1       -0.1740
     20 H         137.5322  144.2779  161.0946 H       1  UNL1        0.2412
     21 H         137.5771  142.5736  161.1294 H       1  UNL1        0.2412
@<TRIPOS>BOND
     1     1     2    1
     2     2     3    2
     3     3     4    1
     4     4     5    1
     5     5     6    1
     6     6     7   ar
     7     7     8   ar
     8     8     9   ar
     9     9    10   ar
    10    10    11   ar
    11    11    12    1
    12    12    13    1
    13    13    14   ar
    14    14    15   ar
    15    15    16   ar
    16    16    17   ar
    17    17    18   ar
    18    18    19    1
    19    19     2    1
    20    19     5    1
    21    11     6   ar
    22    18    13   ar
    23     1    20    1
    24     1    21    1
@<TRIPOS>MOLECULE
*****
 21 24 0 0 0
SMALL
GASTEIGER

@<TRIPOS>ATOM
      1 N         137.6815  144.3103  162.5223 N.pl3   1  UNL1       -0.2513
      2 C         137.9732  142.8795  162.8655 C.cat   1  UNL1        0.3712
      3 N         137.0011  141.7395  162.7926 N.2     1  UNL1       -0.0974
      4 C         137.7152  140.4929  163.2240 C.3     1  UNL1        0.2614
      5 C         139.1288  140.8626  163.5635 C.3     1  UNL1        0.2036
      6 C         140.1509  139.8720  164.0370 C.ar    1  UNL1        0.0118
      7 C         139.5758  138.4893  164.1222 C.ar    1  UNL1       -0.0014
      8 C         140.4346  137.3465  164.5764 C.ar    1  UNL1       -0.0002
      9 C         141.8686  137.5864  164.9453 C.ar    1  UNL1       -0.0003
     10 C         142.4438  138.9691  164.8600 C.ar    1  UNL1       -0.0041
     11 C         141.5849  140.1119  164.4059 C.ar    1  UNL1       -0.0186
     12 C         142.3509  141.4015  164.3924 C.3     1  UNL1        0.0551
     13 C         141.8723  142.7697  164.0067 C.ar    1  UNL1        0.0111
     14 C         142.9648  143.7893  164.1361 C.ar    1  UNL1       -0.0013
     15 C         142.6943  145.2255  163.7980 C.ar    1  UNL1       -0.0001
     16 C         141.3313  145.6420  163.3305 C.ar    1  UNL1        0.0027
     17 C         140.2387  144.6224  163.2011 C.ar    1  UNL1        0.0311
     18 C         140.5092  143.1863  163.5392 C.ar    1  UNL1        0.1086
     19 N         139.2882  142.3375  163.3419 N.pl3   1  UNL1       -0.1740
     20 H         136.7823  144.5697  162.2167 H       1  UNL1        0.2412
     21 H         138.3893  144.9899  162.6026 H       1  UNL1        0.2412
@<TRIPOS>BOND
     1     1     2    1
     2     2     3    2
     3     3     4    1
     4     4     5    1
     5     5     6    1
     6     6     7   ar
     7     7     8   ar
     8     8     9   ar
     9     9    10   ar
    10    10    11   ar
    11    11    12    1
    12    12    13    1
    13    13    14   ar
    14    14    15   ar
    15    15    16   ar
    16    16    17   ar
    17    17    18   ar
    18    18    19    1
    19    19     2    1
    20    19     5    1
    21    11     6   ar
    22    18    13   ar
    23     1    20    1
    24     1    21    1
@<TRIPOS>MOLECULE
*****
 21 24 0 0 0
SMALL
GASTEIGER

@<TRIPOS>ATOM
      1 N         142.9060  145.3824  162.6956 N.pl3   1  UNL1       -0.2513
      2 C         143.0769  144.4062  163.8217 C.cat   1  UNL1        0.3712
      3 N         144.3778  144.0083  164.4537 N.2     1  UNL1       -0.0974
      4 C         144.0819  143.0127  165.5360 C.3     1  UNL1        0.2614
      5 C         142.5981  142.7954  165.5728 C.3     1  UNL1        0.2036
      6 C         141.9235  141.8609  166.5328 C.ar    1  UNL1        0.0118
      7 C         142.9173  141.1878  167.4323 C.ar    1  UNL1       -0.0014
      8 C         142.4488  140.2107  168.4695 C.ar    1  UNL1       -0.0002
      9 C         140.9864  139.9068  168.6071 C.ar    1  UNL1       -0.0003
     10 C         139.9925  140.5799  167.7076 C.ar    1  UNL1       -0.0041
     11 C         140.4611  141.5569  166.6705 C.ar    1  UNL1       -0.0186
     12 C         139.3122  142.1124  165.8820 C.3     1  UNL1        0.0551
     13 C         139.3419  143.1089  164.7613 C.ar    1  UNL1        0.0111
     14 C         137.9628  143.3944  164.2451 C.ar    1  UNL1       -0.0013
     15 C         137.7696  144.3672  163.1198 C.ar    1  UNL1       -0.0001
     16 C         138.9556  145.0545  162.5107 C.ar    1  UNL1        0.0027
     17 C         140.3348  144.7689  163.0268 C.ar    1  UNL1        0.0311
     18 C         140.5279  143.7961  164.1521 C.ar    1  UNL1        0.1086
     19 N         141.9771  143.6566  164.5133 N.pl3   1  UNL1       -0.1740
     20 H         143.6933  145.8263  162.3052 H       1  UNL1        0.2412
     21 H         142.0066  145.5792  162.3471 H       1  UNL1        0.2412
@<TRIPOS>BOND
     1     1     2    1
     2     2     3    2
     3     3     4    1
     4     4     5    1
     5     5     6    1
     6     6     7   ar
     7     7     8   ar
     8     8     9   ar
     9     9    10   ar
    10    10    11   ar
    11    11    12    1
    12    12    13    1
    13    13    14   ar
    14    14    15   ar
    15    15    16   ar
    16    16    17   ar
    17    17    18   ar
    18    18    19    1
    19    19     2    1
    20    19     5    1
    21    11     6   ar
    22    18    13   ar
    23     1    20    1
    24     1    21    1
@<TRIPOS>MOLECULE
*****
 21 24 0 0 0
SMALL
GASTEIGER

@<TRIPOS>ATOM
      1 N         137.8090  139.8672  165.2983 N.pl3   1  UNL1       -0.2513
      2 C         139.2837  139.6597  165.1181 C.cat   1  UNL1        0.3712
      3 N         140.0082  138.3500  165.2162 N.2     1  UNL1       -0.0974
      4 C         141.4650  138.6064  164.9669 C.3     1  UNL1        0.2614
      5 C         141.6407  140.0746  164.7146 C.3     1  UNL1        0.2036
      6 C         142.9682  140.7102  164.4252 C.ar    1  UNL1        0.0118
      7 C         144.0728  139.6954  164.4230 C.ar    1  UNL1       -0.0014
      8 C         145.4847  140.1243  164.1535 C.ar    1  UNL1       -0.0002
      9 C         145.7919  141.5680  163.8861 C.ar    1  UNL1       -0.0003
     10 C         144.6872  142.5827  163.8883 C.ar    1  UNL1       -0.0041
     11 C         143.2754  142.1538  164.1578 C.ar    1  UNL1       -0.0186
     12 C         142.3310  143.3184  164.1138 C.3     1  UNL1        0.0551
     13 C         140.8461  143.3270  164.3263 C.ar    1  UNL1        0.0111
     14 C         140.2814  144.7102  164.1937 C.ar    1  UNL1       -0.0013
     15 C         138.8096  144.9396  164.3702 C.ar    1  UNL1       -0.0001
     16 C         137.9025  143.7858  164.6792 C.ar    1  UNL1        0.0027
     17 C         138.4671  142.4024  164.8117 C.ar    1  UNL1        0.0311
     18 C         139.9389  142.1730  164.6353 C.ar    1  UNL1        0.1086
     19 N         140.2925  140.7255  164.8081 N.pl3   1  UNL1       -0.1740
     20 H         137.2252  139.1007  165.5009 H       1  UNL1        0.2412
     21 H         137.4250  140.7698  165.2141 H       1  UNL1        0.2412
@<TRIPOS>BOND
     1     1     2    1
     2     2     3    2
     3     3     4    1
     4     4     5    1
     5     5     6    1
     6     6     7   ar
     7     7     8   ar
     8     8     9   ar
     9     9    10   ar
    10    10    11   ar
    11    11    12    1
    12    12    13    1
    13    13    14   ar
    14    14    15   ar
    15    15    16   ar
    16    16    17   ar
    17    17    18   ar
    18    18    19    1
    19    19     2    1
    20    19     5    1
    21    11     6   ar
    22    18    13   ar
    23     1    20    1
    24     1    21    1
@<TRIPOS>MOLECULE
*****
 21 24 0 0 0
SMALL
GASTEIGER

@<TRIPOS>ATOM
      1 N         140.3924  146.1468  162.5527 N.pl3   1  UNL1       -0.2513
      2 C         139.8027  144.7680  162.5865 C.cat   1  UNL1        0.3712
      3 N         138.4742  144.3631  162.0199 N.2     1  UNL1       -0.0974
      4 C         138.2884  142.8968  162.2761 C.3     1  UNL1        0.2614
      5 C         139.5022  142.3956  163.0009 C.3     1  UNL1        0.2036
      6 C         139.6787  140.9686  163.4285 C.ar    1  UNL1        0.0118
      7 C         138.4979  140.1297  163.0389 C.ar    1  UNL1       -0.0014
      8 C         138.4731  138.6679  163.3743 C.ar    1  UNL1       -0.0002
      9 C         139.6291  138.0451  164.0992 C.ar    1  UNL1       -0.0003
     10 C         140.8100  138.8840  164.4888 C.ar    1  UNL1       -0.0041
     11 C         140.8348  140.3457  164.1535 C.ar    1  UNL1       -0.0186
     12 C         142.0998  140.9960  164.6299 C.3     1  UNL1        0.0551
     13 C         142.5212  142.4296  164.4992 C.ar    1  UNL1        0.0111
     14 C         143.8685  142.6633  165.1158 C.ar    1  UNL1       -0.0013
     15 C         144.4762  144.0344  165.0928 C.ar    1  UNL1       -0.0001
     16 C         143.7367  145.1719  164.4532 C.ar    1  UNL1        0.0027
     17 C         142.3894  144.9383  163.8366 C.ar    1  UNL1        0.0311
     18 C         141.7816  143.5671  163.8595 C.ar    1  UNL1        0.1086
     19 N         140.4381  143.5520  163.1928 N.pl3   1  UNL1       -0.1740
     20 H         139.8959  146.8843  162.1295 H       1  UNL1        0.2412
     21 H         141.2758  146.3144  162.9536 H       1  UNL1        0.2412
@<TRIPOS>BOND
     1     1     2    1
     2     2     3    2
     3     3     4    1
     4     4     5    1
     5     5     6    1
     6     6     7   ar
     7     7     8   ar
     8     8     9   ar
     9     9    10   ar
    10    10    11   ar
    11    11    12    1
    12    12    13    1
    13    13    14   ar
    14    14    15   ar
    15    15    16   ar
    16    16    17   ar
    17    17    18   ar
    18    18    19    1
    19    19     2    1
    20    19     5    1
    21    11     6   ar
    22    18    13   ar
    23     1    20    1
    24     1    21    1
