@<TRIPOS>MOLECULE
*****
 20 22 0 0 0
SMALL
GASTEIGER

@<TRIPOS>ATOM
      1 C         140.2562  141.1042  166.5059 C.3     1  UNL1        0.0310
      2 C         140.2984  142.2641  165.5558 C.ar    1  UNL1       -0.0212
      3 C         139.0388  142.7365  164.8924 C.ar    1  UNL1        0.0051
      4 C         139.0810  143.8965  163.9423 C.ar    1  UNL1        0.0629
      5 BR        137.8212  144.3688  163.2790 Br      1  UNL1       -0.0463
      6 C         140.3829  144.5841  163.6556 C.ar    1  UNL1        0.1145
      7 C         141.6426  144.1117  164.3189 C.ar    1  UNL1        0.0289
      8 C         142.9445  144.7993  164.0321 C.ar    1  UNL1        0.0026
      9 C         144.2042  144.3269  164.6954 C.ar    1  UNL1        0.0001
     10 C         144.1619  143.1669  165.6455 C.ar    1  UNL1       -0.0000
     11 C         142.8601  142.4793  165.9323 C.ar    1  UNL1       -0.0002
     12 C         141.6004  142.9517  165.2690 C.ar    1  UNL1       -0.0014
     13 N         140.4251  145.7440  162.7055 N.pl3   1  UNL1       -0.2047
     14 H         140.3055  146.6612  163.0428 H       1  UNL1        0.2512
     15 C         140.6494  145.5066  161.2415 C.cat   1  UNL1        0.3709
     16 N         139.6660  145.7820  160.1428 N.2     1  UNL1       -0.0977
     17 C         140.3053  145.3977  158.8414 C.3     1  UNL1        0.2596
     18 C         141.6838  144.8848  159.1358 C.3     1  UNL1        0.2107
     19 N         141.8965  144.9521  160.6191 N.pl3   1  UNL1       -0.2215
     20 H         142.7114  144.6802  161.0999 H       1  UNL1        0.2454
@<TRIPOS>BOND
     1     1     2    1
     2     2     3   ar
     3     3     4   ar
     4     4     5    1
     5     4     6   ar
     6     6    13    1
     7    13    15    1
     8    15    16    2
     9    16    17    1
    10    17    18    1
    11    18    19    1
    12     6     7   ar
    13     7     8   ar
    14     8     9   ar
    15     9    10   ar
    16    10    11   ar
    17    11    12   ar
    18    12     2   ar
    19    19    15    1
    20    12     7   ar
    21    13    14    1
    22    19    20    1
@<TRIPOS>MOLECULE
*****
 20 22 0 0 0
SMALL
GASTEIGER

@<TRIPOS>ATOM
      1 C         138.4698  140.2479  170.0822 C.3     1  UNL1        0.0310
      2 C         139.6116  140.4713  169.1355 C.ar    1  UNL1       -0.0212
      3 C         140.8162  141.2451  169.5827 C.ar    1  UNL1        0.0051
      4 C         141.9581  141.4685  168.6359 C.ar    1  UNL1        0.0629
      5 BR        143.1628  142.2424  169.0832 Br      1  UNL1       -0.0463
      6 C         141.8952  140.9182  167.2420 C.ar    1  UNL1        0.1145
      7 C         140.6905  140.1444  166.7947 C.ar    1  UNL1        0.0289
      8 C         140.6277  139.5941  165.4008 C.ar    1  UNL1        0.0026
      9 C         139.4230  138.8203  164.9535 C.ar    1  UNL1        0.0001
     10 C         138.2812  138.5969  165.9003 C.ar    1  UNL1       -0.0000
     11 C         138.3440  139.1472  167.2943 C.ar    1  UNL1       -0.0002
     12 C         139.5487  139.9210  167.7415 C.ar    1  UNL1       -0.0014
     13 N         143.0370  141.1417  166.2952 N.pl3   1  UNL1       -0.2047
     14 H         143.7481  140.4657  166.2134 H       1  UNL1        0.2512
     15 C         143.0954  142.3950  165.4732 C.cat   1  UNL1        0.3709
     16 N         144.3147  143.2346  165.2311 N.2     1  UNL1       -0.0977
     17 C         143.9177  144.3873  164.3572 C.3     1  UNL1        0.2596
     18 C         142.4530  144.2600  164.0592 C.3     1  UNL1        0.2107
     19 N         141.9449  143.0287  164.7489 N.pl3   1  UNL1       -0.2215
     20 H         141.0189  142.6951  164.7296 H       1  UNL1        0.2454
@<TRIPOS>BOND
     1     1     2    1
     2     2     3   ar
     3     3     4   ar
     4     4     5    1
     5     4     6   ar
     6     6    13    1
     7    13    15    1
     8    15    16    2
     9    16    17    1
    10    17    18    1
    11    18    19    1
    12     6     7   ar
    13     7     8   ar
    14     8     9   ar
    15     9    10   ar
    16    10    11   ar
    17    11    12   ar
    18    12     2   ar
    19    19    15    1
    20    12     7   ar
    21    13    14    1
    22    19    20    1
@<TRIPOS>MOLECULE
*****
 20 22 0 0 0
SMALL
GASTEIGER

@<TRIPOS>ATOM
      1 C         140.7216  141.9997  167.3844 C.3     1  UNL1        0.0310
      2 C         139.9273  141.4176  166.2529 C.ar    1  UNL1       -0.0212
      3 C         139.8374  139.9296  166.0872 C.ar    1  UNL1        0.0051
      4 C         139.0430  139.3476  164.9557 C.ar    1  UNL1        0.0629
      5 BR        138.9532  137.8594  164.7900 Br      1  UNL1       -0.0463
      6 C         138.3386  140.2536  163.9899 C.ar    1  UNL1        0.1145
      7 C         138.4285  141.7418  164.1556 C.ar    1  UNL1        0.0289
      8 C         137.7241  142.6478  163.1898 C.ar    1  UNL1        0.0026
      9 C         137.8140  144.1359  163.3555 C.ar    1  UNL1        0.0001
     10 C         138.6083  144.7179  164.4870 C.ar    1  UNL1       -0.0000
     11 C         139.3127  143.8119  165.4528 C.ar    1  UNL1       -0.0002
     12 C         139.2228  142.3238  165.2871 C.ar    1  UNL1       -0.0014
     13 N         137.5443  139.6716  162.8584 N.pl3   1  UNL1       -0.2047
     14 H         136.6033  139.4176  162.9971 H       1  UNL1        0.2512
     15 C         138.1837  139.4766  161.5156 C.cat   1  UNL1        0.3709
     16 N         139.1745  138.4089  161.1576 N.2     1  UNL1       -0.0977
     17 C         139.5477  138.5874  159.7158 C.3     1  UNL1        0.2596
     18 C         138.7875  139.7656  159.1827 C.3     1  UNL1        0.2107
     19 N         137.9445  140.3151  160.2951 N.pl3   1  UNL1       -0.2215
     20 H         137.3402  141.0900  160.2347 H       1  UNL1        0.2454
@<TRIPOS>BOND
     1     1     2    1
     2     2     3   ar
     3     3     4   ar
     4     4     5    1
     5     4     6   ar
     6     6    13    1
     7    13    15    1
     8    15    16    2
     9    16    17    1
    10    17    18    1
    11    18    19    1
    12     6     7   ar
    13     7     8   ar
    14     8     9   ar
    15     9    10   ar
    16    10    11   ar
    17    11    12   ar
    18    12     2   ar
    19    19    15    1
    20    12     7   ar
    21    13    14    1
    22    19    20    1
@<TRIPOS>MOLECULE
*****
 20 22 0 0 0
SMALL
GASTEIGER

@<TRIPOS>ATOM
      1 C         143.6239  138.2078  166.2934 C.3     1  UNL1        0.0310
      2 C         142.2647  138.7695  165.9981 C.ar    1  UNL1       -0.0212
      3 C         141.3589  138.0706  165.0280 C.ar    1  UNL1        0.0051
      4 C         139.9998  138.6323  164.7327 C.ar    1  UNL1        0.0629
      5 BR        139.0940  137.9334  163.7626 Br      1  UNL1       -0.0463
      6 C         139.5464  139.8929  165.4075 C.ar    1  UNL1        0.1145
      7 C         140.4522  140.5918  166.3776 C.ar    1  UNL1        0.0289
      8 C         139.9988  141.8524  167.0524 C.ar    1  UNL1        0.0026
      9 C         140.9046  142.5513  168.0225 C.ar    1  UNL1        0.0001
     10 C         142.2638  141.9896  168.3178 C.ar    1  UNL1       -0.0000
     11 C         142.7171  140.7290  167.6430 C.ar    1  UNL1       -0.0002
     12 C         141.8114  140.0301  166.6729 C.ar    1  UNL1       -0.0014
     13 N         138.1872  140.4546  165.1122 N.pl3   1  UNL1       -0.2047
     14 H         137.3958  140.0983  165.5769 H       1  UNL1        0.2512
     15 C         138.0339  141.5590  164.1089 C.cat   1  UNL1        0.3709
     16 N         138.1006  141.4111  162.6177 N.2     1  UNL1       -0.0977
     17 C         137.8949  142.7660  162.0078 C.3     1  UNL1        0.2596
     18 C         137.7011  143.7513  163.1221 C.3     1  UNL1        0.2107
     19 N         137.7870  143.0053  164.4206 N.pl3   1  UNL1       -0.2215
     20 H         137.6972  143.3963  165.3197 H       1  UNL1        0.2454
@<TRIPOS>BOND
     1     1     2    1
     2     2     3   ar
     3     3     4   ar
     4     4     5    1
     5     4     6   ar
     6     6    13    1
     7    13    15    1
     8    15    16    2
     9    16    17    1
    10    17    18    1
    11    18    19    1
    12     6     7   ar
    13     7     8   ar
    14     8     9   ar
    15     9    10   ar
    16    10    11   ar
    17    11    12   ar
    18    12     2   ar
    19    19    15    1
    20    12     7   ar
    21    13    14    1
    22    19    20    1
@<TRIPOS>MOLECULE
*****
 20 22 0 0 0
SMALL
GASTEIGER

@<TRIPOS>ATOM
      1 C         138.0939  138.3375  166.2901 C.3     1  UNL1        0.0310
      2 C         138.5431  139.7278  165.9508 C.ar    1  UNL1       -0.0212
      3 C         138.1457  140.3463  164.6434 C.ar    1  UNL1        0.0051
      4 C         138.5949  141.7367  164.3041 C.ar    1  UNL1        0.0629
      5 BR        138.1974  142.3552  162.9965 Br      1  UNL1       -0.0463
      6 C         139.4416  142.5085  165.2722 C.ar    1  UNL1        0.1145
      7 C         139.8391  141.8900  166.5797 C.ar    1  UNL1        0.0289
      8 C         140.6858  142.6619  167.5479 C.ar    1  UNL1        0.0026
      9 C         141.0832  142.0434  168.8553 C.ar    1  UNL1        0.0001
     10 C         140.6340  140.6530  169.1946 C.ar    1  UNL1       -0.0000
     11 C         139.7873  139.8812  168.2264 C.ar    1  UNL1       -0.0002
     12 C         139.3899  140.4997  166.9190 C.ar    1  UNL1       -0.0014
     13 N         139.8908  143.8989  164.9329 N.pl3   1  UNL1       -0.2047
     14 H         139.2824  144.6604  165.0715 H       1  UNL1        0.2512
     15 C         141.2670  144.1290  164.3824 C.cat   1  UNL1        0.3709
     16 N         142.3474  143.0970  164.2494 N.2     1  UNL1       -0.0977
     17 C         143.5526  143.7617  163.6530 C.3     1  UNL1        0.2596
     18 C         143.2170  145.2047  163.4175 C.3     1  UNL1        0.2107
     19 N         141.8045  145.4316  163.8683 N.pl3   1  UNL1       -0.2215
     20 H         141.3159  146.2856  163.8329 H       1  UNL1        0.2454
@<TRIPOS>BOND
     1     1     2    1
     2     2     3   ar
     3     3     4   ar
     4     4     5    1
     5     4     6   ar
     6     6    13    1
     7    13    15    1
     8    15    16    2
     9    16    17    1
    10    17    18    1
    11    18    19    1
    12     6     7   ar
    13     7     8   ar
    14     8     9   ar
    15     9    10   ar
    16    10    11   ar
    17    11    12   ar
    18    12     2   ar
    19    19    15    1
    20    12     7   ar
    21    13    14    1
    22    19    20    1
@<TRIPOS>MOLECULE
*****
 20 22 0 0 0
SMALL
GASTEIGER

@<TRIPOS>ATOM
      1 C         137.7989  139.1224  166.6911 C.3     1  UNL1        0.0310
      2 C         139.2742  139.1566  166.4223 C.ar    1  UNL1       -0.0212
      3 C         140.2113  139.7152  167.4517 C.ar    1  UNL1        0.0051
      4 C         141.6867  139.7494  167.1829 C.ar    1  UNL1        0.0629
      5 BR        142.6238  140.3080  168.2123 Br      1  UNL1       -0.0463
      6 C         142.2248  139.2249  165.8847 C.ar    1  UNL1        0.1145
      7 C         141.2876  138.6662  164.8553 C.ar    1  UNL1        0.0289
      8 C         141.8258  138.1418  163.5571 C.ar    1  UNL1        0.0026
      9 C         140.8887  137.5832  162.5278 C.ar    1  UNL1        0.0001
     10 C         139.4133  137.5490  162.7966 C.ar    1  UNL1       -0.0000
     11 C         138.8752  138.0734  164.0947 C.ar    1  UNL1       -0.0002
     12 C         139.8123  138.6321  165.1241 C.ar    1  UNL1       -0.0014
     13 N         143.7001  139.2591  165.6159 N.pl3   1  UNL1       -0.2047
     14 H         144.2789  138.5379  165.9538 H       1  UNL1        0.2512
     15 C         144.2937  140.3921  164.8324 C.cat   1  UNL1        0.3709
     16 N         143.9819  141.8481  165.0137 N.2     1  UNL1       -0.0977
     17 C         144.7988  142.6239  164.0233 C.3     1  UNL1        0.2596
     18 C         145.6154  141.6473  163.2299 C.3     1  UNL1        0.2107
     19 N         145.3032  140.2680  163.7299 N.pl3   1  UNL1       -0.2215
     20 H         145.6926  139.4286  163.3936 H       1  UNL1        0.2454
@<TRIPOS>BOND
     1     1     2    1
     2     2     3   ar
     3     3     4   ar
     4     4     5    1
     5     4     6   ar
     6     6    13    1
     7    13    15    1
     8    15    16    2
     9    16    17    1
    10    17    18    1
    11    18    19    1
    12     6     7   ar
    13     7     8   ar
    14     8     9   ar
    15     9    10   ar
    16    10    11   ar
    17    11    12   ar
    18    12     2   ar
    19    19    15    1
    20    12     7   ar
    21    13    14    1
    22    19    20    1
@<TRIPOS>MOLECULE
*****
 20 22 0 0 0
SMALL
GASTEIGER

@<TRIPOS>ATOM
      1 C         137.6603  138.8168  166.8724 C.3     1  UNL1        0.0310
      2 C         139.0686  138.8099  166.3560 C.ar    1  UNL1       -0.0212
      3 C         139.4029  138.0624  165.0993 C.ar    1  UNL1        0.0051
      4 C         140.8113  138.0555  164.5829 C.ar    1  UNL1        0.0629
      5 BR        141.1456  137.3080  163.3261 Br      1  UNL1       -0.0463
      6 C         141.8852  138.7960  165.3233 C.ar    1  UNL1        0.1145
      7 C         141.5509  139.5435  166.5802 C.ar    1  UNL1        0.0289
      8 C         142.6248  140.2839  167.3206 C.ar    1  UNL1        0.0026
      9 C         142.2905  141.0314  168.5774 C.ar    1  UNL1        0.0001
     10 C         140.8821  141.0383  169.0937 C.ar    1  UNL1       -0.0000
     11 C         139.8082  140.2978  168.3533 C.ar    1  UNL1       -0.0002
     12 C         140.1426  139.5504  167.0965 C.ar    1  UNL1       -0.0014
     13 N         143.2935  138.7890  164.8070 N.pl3   1  UNL1       -0.2047
     14 H         143.8792  138.0180  164.9849 H       1  UNL1        0.2512
     15 C         143.8094  139.9568  164.0196 C.cat   1  UNL1        0.3709
     16 N         142.9818  141.0701  163.4488 N.2     1  UNL1       -0.0977
     17 C         143.9044  142.0177  162.7411 C.3     1  UNL1        0.2596
     18 C         145.3022  141.4901  162.8746 C.3     1  UNL1        0.2107
     19 N         145.2435  140.2164  163.6647 N.pl3   1  UNL1       -0.2215
     20 H         146.0114  139.6503  163.9077 H       1  UNL1        0.2454
@<TRIPOS>BOND
     1     1     2    1
     2     2     3   ar
     3     3     4   ar
     4     4     5    1
     5     4     6   ar
     6     6    13    1
     7    13    15    1
     8    15    16    2
     9    16    17    1
    10    17    18    1
    11    18    19    1
    12     6     7   ar
    13     7     8   ar
    14     8     9   ar
    15     9    10   ar
    16    10    11   ar
    17    11    12   ar
    18    12     2   ar
    19    19    15    1
    20    12     7   ar
    21    13    14    1
    22    19    20    1
@<TRIPOS>MOLECULE
*****
 20 22 0 0 0
SMALL
GASTEIGER

@<TRIPOS>ATOM
      1 C         142.6005  140.7708  168.1765 C.3     1  UNL1        0.0310
      2 C         141.4060  140.7709  167.2693 C.ar    1  UNL1       -0.0212
      3 C         140.2716  139.8229  167.5228 C.ar    1  UNL1        0.0051
      4 C         139.0770  139.8230  166.6156 C.ar    1  UNL1        0.0629
      5 BR        137.9426  138.8749  166.8691 Br      1  UNL1       -0.0463
      6 C         139.0169  140.7712  165.4549 C.ar    1  UNL1        0.1145
      7 C         140.1513  141.7193  165.2013 C.ar    1  UNL1        0.0289
      8 C         140.0912  142.6675  164.0406 C.ar    1  UNL1        0.0026
      9 C         141.2256  143.6156  163.7872 C.ar    1  UNL1        0.0001
     10 C         142.4201  143.6154  164.6944 C.ar    1  UNL1       -0.0000
     11 C         142.4803  142.6672  165.8551 C.ar    1  UNL1       -0.0002
     12 C         141.3459  141.7192  166.1085 C.ar    1  UNL1       -0.0014
     13 N         137.8223  140.7714  164.5476 N.pl3   1  UNL1       -0.2047
     14 H         137.0167  141.2805  164.7946 H       1  UNL1        0.2512
     15 C         137.8552  139.9957  163.2642 C.cat   1  UNL1        0.3709
     16 N         138.4577  138.6357  163.0711 N.2     1  UNL1       -0.0977
     17 C         138.2662  138.2433  161.6361 C.3     1  UNL1        0.2596
     18 C         137.5453  139.3610  160.9422 C.3     1  UNL1        0.2107
     19 N         137.2913  140.4440  161.9485 N.pl3   1  UNL1       -0.2215
     20 H         136.8347  141.2989  161.7757 H       1  UNL1        0.2454
@<TRIPOS>BOND
     1     1     2    1
     2     2     3   ar
     3     3     4   ar
     4     4     5    1
     5     4     6   ar
     6     6    13    1
     7    13    15    1
     8    15    16    2
     9    16    17    1
    10    17    18    1
    11    18    19    1
    12     6     7   ar
    13     7     8   ar
    14     8     9   ar
    15     9    10   ar
    16    10    11   ar
    17    11    12   ar
    18    12     2   ar
    19    19    15    1
    20    12     7   ar
    21    13    14    1
    22    19    20    1
@<TRIPOS>MOLECULE
*****
 20 22 0 0 0
SMALL
GASTEIGER

@<TRIPOS>ATOM
      1 C         141.3636  141.8898  167.5704 C.3     1  UNL1        0.0310
      2 C         141.6520  140.8305  166.5483 C.ar    1  UNL1       -0.0212
      3 C         142.9921  140.7818  165.8762 C.ar    1  UNL1        0.0051
      4 C         143.2805  139.7224  164.8542 C.ar    1  UNL1        0.0629
      5 BR        144.6207  139.6738  164.1821 Br      1  UNL1       -0.0463
      6 C         142.2289  138.7118  164.5042 C.ar    1  UNL1        0.1145
      7 C         140.8887  138.7605  165.1762 C.ar    1  UNL1        0.0289
      8 C         139.8370  137.7499  164.8262 C.ar    1  UNL1        0.0026
      9 C         138.4969  137.7986  165.4983 C.ar    1  UNL1        0.0001
     10 C         138.2085  138.8579  166.5204 C.ar    1  UNL1       -0.0000
     11 C         139.2602  139.8685  166.8704 C.ar    1  UNL1       -0.0002
     12 C         140.6003  139.8198  166.1983 C.ar    1  UNL1       -0.0014
     13 N         142.5173  137.6525  163.4821 N.pl3   1  UNL1       -0.2047
     14 H         142.8208  136.7610  163.7693 H       1  UNL1        0.2512
     15 C         142.3432  137.9513  162.0225 C.cat   1  UNL1        0.3709
     16 N         141.3719  138.9305  161.4327 N.2     1  UNL1       -0.0977
     17 C         141.5383  138.9078  159.9422 C.3     1  UNL1        0.2596
     18 C         142.6125  137.9146  159.6108 C.3     1  UNL1        0.2107
     19 N         143.1099  137.3235  160.8965 N.pl3   1  UNL1       -0.2215
     20 H         143.8157  136.6430  160.9857 H       1  UNL1        0.2454
@<TRIPOS>BOND
     1     1     2    1
     2     2     3   ar
     3     3     4   ar
     4     4     5    1
     5     4     6   ar
     6     6    13    1
     7    13    15    1
     8    15    16    2
     9    16    17    1
    10    17    18    1
    11    18    19    1
    12     6     7   ar
    13     7     8   ar
    14     8     9   ar
    15     9    10   ar
    16    10    11   ar
    17    11    12   ar
    18    12     2   ar
    19    19    15    1
    20    12     7   ar
    21    13    14    1
    22    19    20    1
