@<TRIPOS>MOLECULE
*****
 28 31 0 0 0
SMALL
GASTEIGER

@<TRIPOS>ATOM
      1 C         139.3750  142.5285  164.9194 C.ar    1  UNL1        0.0873
      2 C         140.1665  142.9114  166.1346 C.ar    1  UNL1        0.0400
      3 C         140.2964  141.9500  167.2787 C.ar    1  UNL1        0.1032
      4 N         141.0879  142.3330  168.4940 N.ar    1  UNL1       -0.2405
      5 C         141.2179  141.3716  169.6380 C.ar    1  UNL1        0.1195
      6 C         140.5563  140.0273  169.5668 C.ar    1  UNL1        0.1196
      7 N         139.7648  139.6443  168.3515 N.ar    1  UNL1       -0.2379
      8 C         139.6349  140.6057  167.2075 C.ar    1  UNL1        0.1302
      9 C         138.8434  140.2227  165.9922 C.ar    1  UNL1        0.1477
     10 N         138.7134  141.1841  164.8482 N.ar    1  UNL1       -0.2292
     11 C         140.4829  145.4400  160.6559 C.3     1  UNL1        0.1538
     12 N         139.7543  144.8281  161.8156 N.ar    1  UNL1       -0.2473
     13 C         140.3162  143.8265  162.7807 C.ar    1  UNL1        0.0982
     14 C         139.2450  143.4899  163.7753 C.ar    1  UNL1        0.0573
     15 C         138.0212  144.2833  163.4250 C.ar    1  UNL1        0.1231
     16 N         138.3359  145.1104  162.2139 N.ar    1  UNL1       -0.1675
     17 N         138.1818  138.8784  165.9210 N.pl3   1  UNL1       -0.3167
     18 H         137.2602  138.7654  166.2481 H       1  UNL1        0.1482
     19 C         138.9245  137.7063  165.3513 C.3     1  UNL1        0.0950
     20 C         139.5188  137.7911  163.9767 C.3     1  UNL1        0.0965
     21 C         138.6237  137.8274  162.7736 C.3     1  UNL1        0.0757
     22 N         139.2180  137.9122  161.3989 N.3     1  UNL1       -0.2971
     23 C         140.7074  137.9608  161.2274 C.3     1  UNL1        0.0742
     24 C         141.6025  137.9245  162.4306 C.3     1  UNL1        0.0837
     25 C         141.0082  137.8397  163.8052 C.3     1  UNL1        0.2680
     26 F         140.9206  137.7624  165.3006 F       1  UNL1       -0.2042
     27 F         142.4671  137.8614  164.1530 F       1  UNL1       -0.2042
     28 H         138.8443  138.7579  160.9682 H       1  UNL1        0.1233
@<TRIPOS>BOND
     1    11    12    1
     2    12    13   ar
     3    13    14   ar
     4    14     1    1
     5     1     2   ar
     6     2     3   ar
     7     3     4   ar
     8     4     5   ar
     9     5     6   ar
    10     6     7   ar
    11     7     8   ar
    12     8     9   ar
    13     9    17    1
    14    17    19    1
    15    20    19    1
    16    20    21    1
    17    21    22    1
    18    22    23    1
    19    23    24    1
    20    24    25    1
    21    25    26    1
    22    25    27    1
    23     9    10   ar
    24    14    15   ar
    25    15    16   ar
    26    16    12   ar
    27    10     1   ar
    28     8     3   ar
    29    25    20    1
    30    17    18    1
    31    22    28    1
@<TRIPOS>MOLECULE
*****
 28 31 0 0 0
SMALL
GASTEIGER

@<TRIPOS>ATOM
      1 C         140.2552  141.9104  167.0149 C.ar    1  UNL1        0.0873
      2 C         139.9989  142.8433  165.8686 C.ar    1  UNL1        0.0400
      3 C         139.1374  142.4037  164.7220 C.ar    1  UNL1        0.1032
      4 N         138.8811  143.3365  163.5757 N.ar    1  UNL1       -0.2405
      5 C         138.0196  142.8969  162.4292 C.ar    1  UNL1        0.1195
      6 C         137.4143  141.5244  162.4291 C.ar    1  UNL1        0.1196
      7 N         137.6706  140.5916  163.5754 N.ar    1  UNL1       -0.2379
      8 C         138.5321  141.0312  164.7219 C.ar    1  UNL1        0.1302
      9 C         138.7884  140.0984  165.8683 C.ar    1  UNL1        0.1477
     10 N         139.6499  140.5380  167.0147 N.ar    1  UNL1       -0.2292
     11 C         144.4283  142.6577  170.1626 C.3     1  UNL1        0.1538
     12 N         143.0349  142.6935  169.6083 N.ar    1  UNL1       -0.2473
     13 C         142.5816  142.0696  168.3216 C.ar    1  UNL1        0.0982
     14 C         141.1168  142.3500  168.1615 C.ar    1  UNL1        0.0573
     15 C         140.6648  143.1471  169.3490 C.ar    1  UNL1        0.1231
     16 N         141.8502  143.3594  170.2432 N.ar    1  UNL1       -0.1675
     17 N         138.1831  138.7259  165.8681 N.pl3   1  UNL1       -0.3167
     18 H         137.2703  138.5905  166.2112 H       1  UNL1        0.1482
     19 C         138.9685  137.5599  165.3453 C.3     1  UNL1        0.0950
     20 C         140.1432  137.7915  164.4417 C.3     1  UNL1        0.0965
     21 C         141.4929  138.0851  165.0265 C.3     1  UNL1        0.0757
     22 N         142.6676  138.3167  164.1229 N.3     1  UNL1       -0.2971
     23 C         142.4926  138.2547  162.6345 C.3     1  UNL1        0.0742
     24 C         141.1428  137.9610  162.0496 C.3     1  UNL1        0.0837
     25 C         139.9681  137.7294  162.9532 C.3     1  UNL1        0.2680
     26 F         138.5632  137.4416  163.3929 F       1  UNL1       -0.2042
     27 F         139.3052  137.5675  161.6174 F       1  UNL1       -0.2042
     28 H         143.3687  137.6170  164.3664 H       1  UNL1        0.1233
@<TRIPOS>BOND
     1    11    12    1
     2    12    13   ar
     3    13    14   ar
     4    14     1    1
     5     1     2   ar
     6     2     3   ar
     7     3     4   ar
     8     4     5   ar
     9     5     6   ar
    10     6     7   ar
    11     7     8   ar
    12     8     9   ar
    13     9    17    1
    14    17    19    1
    15    20    19    1
    16    20    21    1
    17    21    22    1
    18    22    23    1
    19    23    24    1
    20    24    25    1
    21    25    26    1
    22    25    27    1
    23     9    10   ar
    24    14    15   ar
    25    15    16   ar
    26    16    12   ar
    27    10     1   ar
    28     8     3   ar
    29    25    20    1
    30    17    18    1
    31    22    28    1
@<TRIPOS>MOLECULE
*****
 28 31 0 0 0
SMALL
GASTEIGER

@<TRIPOS>ATOM
      1 C         139.7817  139.8795  166.4903 C.ar    1  UNL1        0.0873
      2 C         140.8587  139.0853  165.8127 C.ar    1  UNL1        0.0400
      3 C         140.7813  138.8223  164.3379 C.ar    1  UNL1        0.1032
      4 N         141.8583  138.0280  163.6602 N.ar    1  UNL1       -0.2405
      5 C         141.7809  137.7651  162.1855 C.ar    1  UNL1        0.1195
      6 C         140.6266  138.2963  161.3885 C.ar    1  UNL1        0.1196
      7 N         139.5496  139.0905  162.0661 N.ar    1  UNL1       -0.2379
      8 C         139.6270  139.3535  163.5408 C.ar    1  UNL1        0.1302
      9 C         138.5500  140.1478  164.2186 C.ar    1  UNL1        0.1477
     10 N         138.6274  140.4107  165.6933 N.ar    1  UNL1       -0.2292
     11 C         141.5208  141.4187  171.2325 C.3     1  UNL1        0.1538
     12 N         140.6585  140.8500  170.1448 N.ar    1  UNL1       -0.2473
     13 C         141.0053  140.7870  168.6868 C.ar    1  UNL1        0.0982
     14 C         139.8591  140.1425  167.9651 C.ar    1  UNL1        0.0573
     15 C         138.8038  139.8072  168.9771 C.ar    1  UNL1        0.1231
     16 N         139.2978  140.2445  170.3242 N.ar    1  UNL1       -0.1675
     17 N         137.3956  140.6790  163.4216 N.pl3   1  UNL1       -0.3167
     18 H         136.8376  140.0637  162.8933 H       1  UNL1        0.1482
     19 C         137.0916  142.1478  163.4295 C.3     1  UNL1        0.0950
     20 C         138.0350  143.1126  162.7744 C.3     1  UNL1        0.0965
     21 C         138.4237  142.9233  161.3381 C.3     1  UNL1        0.0757
     22 N         139.3671  143.8881  160.6831 N.3     1  UNL1       -0.2971
     23 C         139.9218  145.0422  161.4643 C.3     1  UNL1        0.0742
     24 C         139.5332  145.2315  162.9007 C.3     1  UNL1        0.0837
     25 C         138.5897  144.2667  163.5558 C.3     1  UNL1        0.2680
     26 F         137.7360  143.6254  164.6092 F       1  UNL1       -0.2042
     27 F         138.8480  145.1981  164.7029 F       1  UNL1       -0.2042
     28 H         138.8744  144.2841  159.8825 H       1  UNL1        0.1233
@<TRIPOS>BOND
     1    11    12    1
     2    12    13   ar
     3    13    14   ar
     4    14     1    1
     5     1     2   ar
     6     2     3   ar
     7     3     4   ar
     8     4     5   ar
     9     5     6   ar
    10     6     7   ar
    11     7     8   ar
    12     8     9   ar
    13     9    17    1
    14    17    19    1
    15    20    19    1
    16    20    21    1
    17    21    22    1
    18    22    23    1
    19    23    24    1
    20    24    25    1
    21    25    26    1
    22    25    27    1
    23     9    10   ar
    24    14    15   ar
    25    15    16   ar
    26    16    12   ar
    27    10     1   ar
    28     8     3   ar
    29    25    20    1
    30    17    18    1
    31    22    28    1
@<TRIPOS>MOLECULE
*****
 28 31 0 0 0
SMALL
GASTEIGER

@<TRIPOS>ATOM
      1 C         141.8160  139.5773  165.3506 C.ar    1  UNL1        0.0873
      2 C         142.3905  138.9958  166.6083 C.ar    1  UNL1        0.0400
      3 C         142.3606  139.7870  167.8823 C.ar    1  UNL1        0.1032
      4 N         142.9351  139.2055  169.1400 N.ar    1  UNL1       -0.2405
      5 C         142.9052  139.9968  170.4140 C.ar    1  UNL1        0.1195
      6 C         142.3009  141.3695  170.4302 C.ar    1  UNL1        0.1196
      7 N         141.7264  141.9511  169.1726 N.ar    1  UNL1       -0.2379
      8 C         141.7563  141.1598  167.8986 C.ar    1  UNL1        0.1302
      9 C         141.1818  141.7413  166.6409 C.ar    1  UNL1        0.1477
     10 N         141.2117  140.9501  165.3669 N.ar    1  UNL1       -0.2292
     11 C         143.3284  137.6371  160.6784 C.3     1  UNL1        0.1538
     12 N         142.5411  137.8943  161.9290 N.ar    1  UNL1       -0.2473
     13 C         142.9139  138.8482  163.0251 C.ar    1  UNL1        0.0982
     14 C         141.8459  138.7861  164.0766 C.ar    1  UNL1        0.0573
     15 C         140.8132  137.7939  163.6305 C.ar    1  UNL1        0.1231
     16 N         141.2428  137.2428  162.3032 N.ar    1  UNL1       -0.1675
     17 N         140.5775  143.1141  166.6571 N.pl3   1  UNL1       -0.3167
     18 H         140.9150  143.7931  167.2851 H       1  UNL1        0.1482
     19 C         139.4589  143.4524  165.7167 C.3     1  UNL1        0.0950
     20 C         139.7294  144.2835  164.4977 C.3     1  UNL1        0.0965
     21 C         141.1058  144.8257  164.2499 C.3     1  UNL1        0.0757
     22 N         141.3763  145.6568  163.0308 N.3     1  UNL1       -0.2971
     23 C         140.2703  145.9458  162.0596 C.3     1  UNL1        0.0742
     24 C         138.8938  145.4036  162.3074 C.3     1  UNL1        0.0837
     25 C         138.6233  144.5725  163.5265 C.3     1  UNL1        0.2680
     26 F         137.8790  143.7415  164.5291 F       1  UNL1       -0.2042
     27 F         137.2588  144.5729  162.9035 F       1  UNL1       -0.2042
     28 H         142.1111  145.1811  162.5072 H       1  UNL1        0.1233
@<TRIPOS>BOND
     1    11    12    1
     2    12    13   ar
     3    13    14   ar
     4    14     1    1
     5     1     2   ar
     6     2     3   ar
     7     3     4   ar
     8     4     5   ar
     9     5     6   ar
    10     6     7   ar
    11     7     8   ar
    12     8     9   ar
    13     9    17    1
    14    17    19    1
    15    20    19    1
    16    20    21    1
    17    21    22    1
    18    22    23    1
    19    23    24    1
    20    24    25    1
    21    25    26    1
    22    25    27    1
    23     9    10   ar
    24    14    15   ar
    25    15    16   ar
    26    16    12   ar
    27    10     1   ar
    28     8     3   ar
    29    25    20    1
    30    17    18    1
    31    22    28    1
@<TRIPOS>MOLECULE
*****
 28 31 0 0 0
SMALL
GASTEIGER

@<TRIPOS>ATOM
      1 C         140.2535  140.0235  166.1533 C.ar    1  UNL1        0.0873
      2 C         140.3746  138.9463  165.1165 C.ar    1  UNL1        0.0400
      3 C         139.5150  138.9879  163.8878 C.ar    1  UNL1        0.1032
      4 N         139.6361  137.9108  162.8510 N.ar    1  UNL1       -0.2405
      5 C         138.7766  137.9524  161.6224 C.ar    1  UNL1        0.1195
      6 C         137.7960  139.0711  161.4307 C.ar    1  UNL1        0.1196
      7 N         137.6749  140.1483  162.4675 N.ar    1  UNL1       -0.2379
      8 C         138.5344  140.1067  163.6961 C.ar    1  UNL1        0.1302
      9 C         138.4133  141.1838  164.7330 C.ar    1  UNL1        0.1477
     10 N         139.2729  141.1422  165.9615 N.ar    1  UNL1       -0.2292
     11 C         142.0007  140.7290  171.0859 C.3     1  UNL1        0.1538
     12 N         141.9161  140.3062  169.6492 N.ar    1  UNL1       -0.2473
     13 C         140.7775  140.5857  168.7134 C.ar    1  UNL1        0.0982
     14 C         141.1130  139.9819  167.3819 C.ar    1  UNL1        0.0573
     15 C         142.4589  139.3293  167.4947 C.ar    1  UNL1        0.1231
     16 N         142.9553  139.5297  168.8960 N.ar    1  UNL1       -0.1675
     17 N         137.4327  142.3026  164.5412 N.pl3   1  UNL1       -0.3167
     18 H         136.4664  142.1143  164.5341 H       1  UNL1        0.1482
     19 C         137.9243  143.7081  164.3604 C.3     1  UNL1        0.0950
     20 C         138.8446  144.0404  163.2235 C.3     1  UNL1        0.0965
     21 C         138.4679  143.6678  161.8202 C.3     1  UNL1        0.0757
     22 N         139.3882  144.0001  160.6833 N.3     1  UNL1       -0.2971
     23 C         140.6852  144.7049  160.9496 C.3     1  UNL1        0.0742
     24 C         141.0619  145.0776  162.3529 C.3     1  UNL1        0.0837
     25 C         140.1416  144.7453  163.4899 C.3     1  UNL1        0.2680
     26 F         139.6074  144.6458  164.8879 F       1  UNL1       -0.2042
     27 F         141.2531  145.4156  164.2417 F       1  UNL1       -0.2042
     28 H         138.8599  144.5888  160.0393 H       1  UNL1        0.1233
@<TRIPOS>BOND
     1    11    12    1
     2    12    13   ar
     3    13    14   ar
     4    14     1    1
     5     1     2   ar
     6     2     3   ar
     7     3     4   ar
     8     4     5   ar
     9     5     6   ar
    10     6     7   ar
    11     7     8   ar
    12     8     9   ar
    13     9    17    1
    14    17    19    1
    15    20    19    1
    16    20    21    1
    17    21    22    1
    18    22    23    1
    19    23    24    1
    20    24    25    1
    21    25    26    1
    22    25    27    1
    23     9    10   ar
    24    14    15   ar
    25    15    16   ar
    26    16    12   ar
    27    10     1   ar
    28     8     3   ar
    29    25    20    1
    30    17    18    1
    31    22    28    1
@<TRIPOS>MOLECULE
*****
 28 31 0 0 0
SMALL
GASTEIGER

@<TRIPOS>ATOM
      1 C         143.0496  141.5187  165.4624 C.ar    1  UNL1        0.0873
      2 C         143.4356  142.2412  166.7189 C.ar    1  UNL1        0.0400
      3 C         142.6145  142.0733  167.9630 C.ar    1  UNL1        0.1032
      4 N         143.0005  142.7959  169.2195 N.ar    1  UNL1       -0.2405
      5 C         142.1795  142.6280  170.4635 C.ar    1  UNL1        0.1195
      6 C         140.9724  141.7375  170.4510 C.ar    1  UNL1        0.1196
      7 N         140.5864  141.0150  169.1945 N.ar    1  UNL1       -0.2379
      8 C         141.4075  141.1829  167.9505 C.ar    1  UNL1        0.1302
      9 C         141.0215  140.4603  166.6939 C.ar    1  UNL1        0.1477
     10 N         141.8426  140.6282  165.4499 N.ar    1  UNL1       -0.2292
     11 C         144.4710  142.5769  160.4883 C.3     1  UNL1        0.1538
     12 N         144.5240  142.1729  161.9319 N.ar    1  UNL1       -0.2473
     13 C         143.3660  142.1542  162.8854 C.ar    1  UNL1        0.0982
     14 C         143.8707  141.6865  164.2183 C.ar    1  UNL1        0.0573
     15 C         145.3404  141.4162  164.0887 C.ar    1  UNL1        0.1231
     16 N         145.7442  141.7168  162.6757 N.ar    1  UNL1       -0.1675
     17 N         139.8145  139.5699  166.6814 N.pl3   1  UNL1       -0.3167
     18 H         139.8095  138.7400  167.2111 H       1  UNL1        0.1482
     19 C         138.6151  139.9437  165.8618 C.3     1  UNL1        0.0950
     20 C         138.4707  139.4224  164.4628 C.3     1  UNL1        0.0965
     21 C         138.9207  138.0306  164.1308 C.3     1  UNL1        0.0757
     22 N         138.7762  137.5093  162.7317 N.3     1  UNL1       -0.2971
     23 C         138.1817  138.3798  161.6646 C.3     1  UNL1        0.0742
     24 C         137.7317  139.7717  161.9966 C.3     1  UNL1        0.0837
     25 C         137.8761  140.2930  163.3956 C.3     1  UNL1        0.2680
     26 F         137.8056  141.2296  164.5651 F       1  UNL1       -0.2042
     27 F         137.2571  141.4888  162.7347 F       1  UNL1       -0.2042
     28 H         138.1946  136.6733  162.7876 H       1  UNL1        0.1233
@<TRIPOS>BOND
     1    11    12    1
     2    12    13   ar
     3    13    14   ar
     4    14     1    1
     5     1     2   ar
     6     2     3   ar
     7     3     4   ar
     8     4     5   ar
     9     5     6   ar
    10     6     7   ar
    11     7     8   ar
    12     8     9   ar
    13     9    17    1
    14    17    19    1
    15    20    19    1
    16    20    21    1
    17    21    22    1
    18    22    23    1
    19    23    24    1
    20    24    25    1
    21    25    26    1
    22    25    27    1
    23     9    10   ar
    24    14    15   ar
    25    15    16   ar
    26    16    12   ar
    27    10     1   ar
    28     8     3   ar
    29    25    20    1
    30    17    18    1
    31    22    28    1
@<TRIPOS>MOLECULE
*****
 28 31 0 0 0
SMALL
GASTEIGER

@<TRIPOS>ATOM
      1 C         139.8195  139.6703  165.2357 C.ar    1  UNL1        0.0873
      2 C         139.0918  139.5407  166.5409 C.ar    1  UNL1        0.0400
      3 C         139.7542  139.9739  167.8152 C.ar    1  UNL1        0.1032
      4 N         139.0265  139.8443  169.1204 N.ar    1  UNL1       -0.2405
      5 C         139.6889  140.2774  170.3945 C.ar    1  UNL1        0.1195
      6 C         141.0790  140.8401  170.3635 C.ar    1  UNL1        0.1196
      7 N         141.8067  140.9697  169.0583 N.ar    1  UNL1       -0.2379
      8 C         141.1443  140.5365  167.7841 C.ar    1  UNL1        0.1302
      9 C         141.8720  140.6661  166.4789 C.ar    1  UNL1        0.1477
     10 N         141.2096  140.2330  165.2047 N.ar    1  UNL1       -0.2292
     11 C         137.3802  139.7826  160.5540 C.3     1  UNL1        0.1538
     12 N         138.0359  139.2888  161.8094 N.ar    1  UNL1       -0.2473
     13 C         138.6029  140.1445  162.9033 C.ar    1  UNL1        0.0982
     14 C         139.1571  139.2372  163.9614 C.ar    1  UNL1        0.0573
     15 C         138.9327  137.8208  163.5216 C.ar    1  UNL1        0.1231
     16 N         138.2398  137.8527  162.1916 N.ar    1  UNL1       -0.1675
     17 N         143.2622  141.2288  166.4478 N.pl3   1  UNL1       -0.3167
     18 H         144.0062  140.7250  166.8501 H       1  UNL1        0.1482
     19 C         143.5186  142.5590  165.8040 C.3     1  UNL1        0.0950
     20 C         144.0049  142.6249  164.3865 C.3     1  UNL1        0.0965
     21 C         145.2522  141.8939  163.9868 C.3     1  UNL1        0.0757
     22 N         145.7384  141.9598  162.5693 N.3     1  UNL1       -0.2971
     23 C         144.9774  142.7567  161.5516 C.3     1  UNL1        0.0742
     24 C         143.7301  143.4878  161.9513 C.3     1  UNL1        0.0837
     25 C         143.2438  143.4219  163.3688 C.3     1  UNL1        0.2680
     26 F         142.3903  143.6617  164.5787 F       1  UNL1       -0.2042
     27 F         142.1864  144.3021  162.7713 F       1  UNL1       -0.2042
     28 H         145.7740  141.0002  162.2253 H       1  UNL1        0.1233
@<TRIPOS>BOND
     1    11    12    1
     2    12    13   ar
     3    13    14   ar
     4    14     1    1
     5     1     2   ar
     6     2     3   ar
     7     3     4   ar
     8     4     5   ar
     9     5     6   ar
    10     6     7   ar
    11     7     8   ar
    12     8     9   ar
    13     9    17    1
    14    17    19    1
    15    20    19    1
    16    20    21    1
    17    21    22    1
    18    22    23    1
    19    23    24    1
    20    24    25    1
    21    25    26    1
    22    25    27    1
    23     9    10   ar
    24    14    15   ar
    25    15    16   ar
    26    16    12   ar
    27    10     1   ar
    28     8     3   ar
    29    25    20    1
    30    17    18    1
    31    22    28    1
@<TRIPOS>MOLECULE
*****
 28 31 0 0 0
SMALL
GASTEIGER

@<TRIPOS>ATOM
      1 C         140.7274  142.4410  165.7229 C.ar    1  UNL1        0.0873
      2 C         140.6195  142.6111  167.2093 C.ar    1  UNL1        0.0400
      3 C         141.2797  141.6251  168.1269 C.ar    1  UNL1        0.1032
      4 N         141.1717  141.7952  169.6133 N.ar    1  UNL1       -0.2405
      5 C         141.8319  140.8092  170.5309 C.ar    1  UNL1        0.1195
      6 C         142.6000  139.6531  169.9620 C.ar    1  UNL1        0.1196
      7 N         142.7079  139.4830  168.4757 N.ar    1  UNL1       -0.2379
      8 C         142.0477  140.4690  167.5581 C.ar    1  UNL1        0.1302
      9 C         142.1556  140.2989  166.0716 C.ar    1  UNL1        0.1477
     10 N         141.4955  141.2849  165.1541 N.ar    1  UNL1       -0.2292
     11 C         139.9750  146.1523  162.0430 C.3     1  UNL1        0.1538
     12 N         139.7214  145.1329  163.1137 N.ar    1  UNL1       -0.2473
     13 C         140.7634  144.3117  163.8139 C.ar    1  UNL1        0.0982
     14 C         140.0672  143.4270  164.8052 C.ar    1  UNL1        0.0573
     15 C         138.5951  143.7014  164.7179 C.ar    1  UNL1        0.1231
     16 N         138.3814  144.7557  163.6725 N.ar    1  UNL1       -0.1675
     17 N         142.9237  139.1429  165.5028 N.pl3   1  UNL1       -0.3167
     18 H         143.9025  139.1989  165.4125 H       1  UNL1        0.1482
     19 C         142.2006  137.9015  165.0717 C.3     1  UNL1        0.0950
     20 C         141.2985  137.9367  163.8738 C.3     1  UNL1        0.0965
     21 C         141.8716  138.1870  162.5104 C.3     1  UNL1        0.0757
     22 N         140.9695  138.2222  161.3125 N.3     1  UNL1       -0.2971
     23 C         139.4943  138.0073  161.4780 C.3     1  UNL1        0.0742
     24 C         138.9211  137.7570  162.8414 C.3     1  UNL1        0.0837
     25 C         139.8232  137.7217  164.0393 C.3     1  UNL1        0.2680
     26 F         140.2664  137.5967  165.4668 F       1  UNL1       -0.2042
     27 F         138.5019  137.4634  164.7006 F       1  UNL1       -0.2042
     28 H         141.3021  137.5013  160.6721 H       1  UNL1        0.1233
@<TRIPOS>BOND
     1    11    12    1
     2    12    13   ar
     3    13    14   ar
     4    14     1    1
     5     1     2   ar
     6     2     3   ar
     7     3     4   ar
     8     4     5   ar
     9     5     6   ar
    10     6     7   ar
    11     7     8   ar
    12     8     9   ar
    13     9    17    1
    14    17    19    1
    15    20    19    1
    16    20    21    1
    17    21    22    1
    18    22    23    1
    19    23    24    1
    20    24    25    1
    21    25    26    1
    22    25    27    1
    23     9    10   ar
    24    14    15   ar
    25    15    16   ar
    26    16    12   ar
    27    10     1   ar
    28     8     3   ar
    29    25    20    1
    30    17    18    1
    31    22    28    1
@<TRIPOS>MOLECULE
*****
 28 31 0 0 0
SMALL
GASTEIGER

@<TRIPOS>ATOM
      1 C         139.9266  141.8501  166.1040 C.ar    1  UNL1        0.0873
      2 C         139.1579  141.0455  165.0981 C.ar    1  UNL1        0.0400
      3 C         138.9412  141.5836  163.7148 C.ar    1  UNL1        0.1032
      4 N         138.1726  140.7790  162.7090 N.ar    1  UNL1       -0.2405
      5 C         137.9558  141.3172  161.3257 C.ar    1  UNL1        0.1195
      6 C         138.5077  142.6599  160.9484 C.ar    1  UNL1        0.1196
      7 N         139.2764  143.4645  161.9542 N.ar    1  UNL1       -0.2379
      8 C         139.4931  142.9264  163.3374 C.ar    1  UNL1        0.1302
      9 C         140.2617  143.7310  164.3434 C.ar    1  UNL1        0.1477
     10 N         140.4785  143.1928  165.7266 N.ar    1  UNL1       -0.2292
     11 C         141.5540  141.3577  171.1030 C.3     1  UNL1        0.1538
     12 N         140.8914  141.0857  169.7851 N.ar    1  UNL1       -0.2473
     13 C         140.9414  141.9694  168.5740 C.ar    1  UNL1        0.0982
     14 C         140.1433  141.3119  167.4873 C.ar    1  UNL1        0.0573
     15 C         139.6001  140.0220  168.0267 C.ar    1  UNL1        0.1231
     16 N         140.0624  139.8821  169.4468 N.ar    1  UNL1       -0.1675
     17 N         140.8136  145.0737  163.9660 N.pl3   1  UNL1       -0.3167
     18 H         140.2024  145.8240  163.7850 H       1  UNL1        0.1482
     19 C         142.2968  145.2734  163.8644 C.3     1  UNL1        0.0950
     20 C         143.1477  144.2414  163.1856 C.3     1  UNL1        0.0965
     21 C         142.9182  143.9127  161.7402 C.3     1  UNL1        0.0757
     22 N         143.7691  142.8807  161.0614 N.3     1  UNL1       -0.2971
     23 C         144.8497  142.1773  161.8279 C.3     1  UNL1        0.0742
     24 C         145.0792  142.5060  163.2734 C.3     1  UNL1        0.0837
     25 C         144.2283  143.5380  163.9523 C.3     1  UNL1        0.2680
     26 F         143.6873  144.4337  165.0269 F       1  UNL1       -0.2042
     27 F         145.1210  143.1457  165.0921 F       1  UNL1       -0.2042
     28 H         144.2212  143.3440  160.2731 H       1  UNL1        0.1233
@<TRIPOS>BOND
     1    11    12    1
     2    12    13   ar
     3    13    14   ar
     4    14     1    1
     5     1     2   ar
     6     2     3   ar
     7     3     4   ar
     8     4     5   ar
     9     5     6   ar
    10     6     7   ar
    11     7     8   ar
    12     8     9   ar
    13     9    17    1
    14    17    19    1
    15    20    19    1
    16    20    21    1
    17    21    22    1
    18    22    23    1
    19    23    24    1
    20    24    25    1
    21    25    26    1
    22    25    27    1
    23     9    10   ar
    24    14    15   ar
    25    15    16   ar
    26    16    12   ar
    27    10     1   ar
    28     8     3   ar
    29    25    20    1
    30    17    18    1
    31    22    28    1
