@<TRIPOS>MOLECULE
*****
 40 43 0 0 0
SMALL
GASTEIGER

@<TRIPOS>ATOM
      1 C         139.7807  143.0102  161.9173 C.3     1  UNL1        0.0705
      2 C         139.0442  144.1656  162.5277 C.3     1  UNL1        0.0082
      3 C         139.3099  145.5619  162.0483 C.3     1  UNL1        0.0005
      4 C         140.3121  145.8028  160.9585 C.3     1  UNL1        0.0005
      5 C         141.0486  144.6474  160.3481 C.3     1  UNL1        0.0095
      6 C         140.7829  143.2511  160.8275 C.3     1  UNL1        0.0840
      7 C         141.5194  142.0957  160.2170 C.2     1  UNL1        0.2261
      8 O         142.4696  141.2875  161.0502 O.2     1  UNL1       -0.2748
      9 N         141.3057  141.7484  158.7736 N.am    1  UNL1       -0.2814
     10 H         140.6821  142.2788  158.2268 H       1  UNL1        0.1549
     11 C         142.0422  140.5930  158.1632 C.ar    1  UNL1        0.0935
     12 C         143.1758  140.6875  157.1854 C.ar    1  UNL1        0.1364
     13 N         143.6086  139.2931  156.8413 N.ar    1  UNL1       -0.1662
     14 N         142.7425  138.3368  157.6064 N.ar    1  UNL1       -0.2430
     15 C         142.8292  136.8400  157.5623 C.3     1  UNL1        0.1539
     16 C         141.7744  139.1402  158.4233 C.ar    1  UNL1        0.1480
     17 C         140.7231  138.5877  159.3396 C.2     1  UNL1        0.2866
     18 O         139.3387  138.3296  158.8234 O.2     1  UNL1       -0.2664
     19 N         141.0563  138.2934  160.7723 N.am    1  UNL1       -0.1886
     20 H         141.9650  138.4628  161.1112 H       1  UNL1        0.1829
     21 O         140.0050  137.7409  161.6885 O.3     1  UNL1       -0.2712
     22 C         140.2999  137.5655  163.1487 C.3     1  UNL1        0.1173
     23 C         138.8304  137.4686  163.4338 C.3     1  UNL1        0.0321
     24 C         141.7693  137.6623  162.8637 C.3     1  UNL1        0.0321
     25 C         140.5946  137.3900  164.6090 C.3     1  UNL1        0.0321
     26 C         139.5151  141.6139  162.3967 C.2     1  UNL1        0.1731
     27 O         138.8900  140.6103  161.4737 O.2     1  UNL1       -0.2913
     28 C         140.5935  140.4360  166.6037 C.ar    1  UNL1        0.0194
     29 C         141.6711  140.8142  165.6312 C.ar    1  UNL1        0.0016
     30 C         141.3116  141.2068  164.2289 C.ar    1  UNL1        0.0029
     31 C         139.8745  141.2213  163.7991 C.ar    1  UNL1        0.0347
     32 C         138.7970  140.8432  164.7716 C.ar    1  UNL1        0.0029
     33 C         139.1565  140.4505  166.1739 C.ar    1  UNL1        0.0016
     34 C         143.3788  139.1420  170.8989 C.3     1  UNL1        0.0515
     35 C         142.2333  139.4486  169.9804 C.ar    1  UNL1        0.0535
     36 C         142.3407  139.8278  168.5331 C.ar    1  UNL1        0.0349
     37 C         140.9530  140.0434  168.0061 C.ar    1  UNL1        0.1018
     38 N         139.9878  139.7974  169.1277 N.ar    1  UNL1       -0.1730
     39 N         140.7791  139.4298  170.3479 N.ar    1  UNL1       -0.2798
     40 H         140.4089  139.2140  171.2343 H       1  UNL1        0.1886
@<TRIPOS>BOND
     1    34    35    1
     2    35    36   ar
     3    36    37   ar
     4    37    28    1
     5    28    29   ar
     6    29    30   ar
     7    30    31   ar
     8    31    26    1
     9    26    27    2
    10     1    26    1
    11     1     2    1
    12     2     3    1
    13     3     4    1
    14     4     5    1
    15     5     6    1
    16     6     7    1
    17     7     8    2
    18     7     9   am
    19     9    11    1
    20    11    12   ar
    21    12    13   ar
    22    13    14   ar
    23    14    15    1
    24    14    16   ar
    25    16    17    1
    26    17    18    2
    27    17    19   am
    28    19    21    1
    29    21    22    1
    30    22    23    1
    31    22    24    1
    32    22    25    1
    33    31    32   ar
    34    32    33   ar
    35    37    38   ar
    36    38    39   ar
    37    39    35   ar
    38    33    28   ar
    39     6     1    1
    40    16    11   ar
    41     9    10    1
    42    19    20    1
    43    39    40    1
@<TRIPOS>MOLECULE
*****
 40 43 0 0 0
SMALL
GASTEIGER

@<TRIPOS>ATOM
      1 C         140.8384  141.3386  168.5625 C.3     1  UNL1        0.0705
      2 C         140.4760  142.1528  169.7690 C.3     1  UNL1        0.0082
      3 C         141.5431  142.8837  170.5287 C.3     1  UNL1        0.0005
      4 C         142.9725  142.8004  170.0819 C.3     1  UNL1        0.0005
      5 C         143.3349  141.9863  168.8754 C.3     1  UNL1        0.0095
      6 C         142.2679  141.2554  168.1156 C.3     1  UNL1        0.0840
      7 C         142.6304  140.4412  166.9091 C.2     1  UNL1        0.2261
      8 O         142.8468  138.9626  167.0395 O.2     1  UNL1       -0.2748
      9 N         142.7763  141.1056  165.5722 N.am    1  UNL1       -0.2814
     10 H         142.6343  142.0760  165.4867 H       1  UNL1        0.1549
     11 C         143.1388  140.2914  164.3657 C.ar    1  UNL1        0.0935
     12 C         143.2380  138.7958  164.3086 C.ar    1  UNL1        0.1364
     13 N         143.6262  138.4099  162.9120 N.ar    1  UNL1       -0.1662
     14 N         143.7669  139.6671  162.1059 N.ar    1  UNL1       -0.2430
     15 C         144.1428  139.7474  160.6560 C.3     1  UNL1        0.1539
     16 C         143.4656  140.8299  163.0044 C.ar    1  UNL1        0.1480
     17 C         143.4875  142.2771  162.6106 C.2     1  UNL1        0.2866
     18 O         144.6898  143.1198  162.9173 O.2     1  UNL1       -0.2664
     19 N         142.3068  142.8816  161.9099 N.am    1  UNL1       -0.1886
     20 H         141.5177  142.3285  161.7086 H       1  UNL1        0.1829
     21 O         142.3287  144.3289  161.5161 O.3     1  UNL1       -0.2712
     22 C         141.1053  145.1759  161.7049 C.3     1  UNL1        0.1173
     23 C         140.7894  145.0452  160.2444 C.3     1  UNL1        0.0321
     24 C         141.4211  145.3067  163.1654 C.3     1  UNL1        0.0321
     25 C         139.8818  146.0230  161.8936 C.3     1  UNL1        0.0321
     26 C         139.7714  140.6077  167.8027 C.2     1  UNL1        0.1731
     27 O         138.9547  139.5509  168.4856 O.2     1  UNL1       -0.2913
     28 C         139.0202  141.5852  163.4749 C.ar    1  UNL1        0.0194
     29 C         138.9931  140.1585  163.9372 C.ar    1  UNL1        0.0016
     30 C         139.2435  139.8327  165.3798 C.ar    1  UNL1        0.0029
     31 C         139.5210  140.9336  166.3601 C.ar    1  UNL1        0.0347
     32 C         139.5481  142.3603  165.8978 C.ar    1  UNL1        0.0029
     33 C         139.2977  142.6861  164.4552 C.ar    1  UNL1        0.0016
     34 C         139.1979  141.4798  158.1987 C.3     1  UNL1        0.0515
     35 C         138.8515  141.8626  159.6070 C.ar    1  UNL1        0.0535
     36 C         139.3782  141.2129  160.8522 C.ar    1  UNL1        0.0349
     37 C         138.7698  141.9111  162.0322 C.ar    1  UNL1        0.1018
     38 N         137.8671  142.9922  161.5164 N.ar    1  UNL1       -0.1730
     39 N         137.9175  142.9623  160.0175 N.ar    1  UNL1       -0.2798
     40 H         137.4243  143.5596  159.4099 H       1  UNL1        0.1886
@<TRIPOS>BOND
     1    34    35    1
     2    35    36   ar
     3    36    37   ar
     4    37    28    1
     5    28    29   ar
     6    29    30   ar
     7    30    31   ar
     8    31    26    1
     9    26    27    2
    10     1    26    1
    11     1     2    1
    12     2     3    1
    13     3     4    1
    14     4     5    1
    15     5     6    1
    16     6     7    1
    17     7     8    2
    18     7     9   am
    19     9    11    1
    20    11    12   ar
    21    12    13   ar
    22    13    14   ar
    23    14    15    1
    24    14    16   ar
    25    16    17    1
    26    17    18    2
    27    17    19   am
    28    19    21    1
    29    21    22    1
    30    22    23    1
    31    22    24    1
    32    22    25    1
    33    31    32   ar
    34    32    33   ar
    35    37    38   ar
    36    38    39   ar
    37    39    35   ar
    38    33    28   ar
    39     6     1    1
    40    16    11   ar
    41     9    10    1
    42    19    20    1
    43    39    40    1
@<TRIPOS>MOLECULE
*****
 40 43 0 0 0
SMALL
GASTEIGER

@<TRIPOS>ATOM
      1 C         138.7275  138.8290  163.3788 C.3     1  UNL1        0.0705
      2 C         138.8748  137.8833  164.5338 C.3     1  UNL1        0.0082
      3 C         139.0925  138.4183  165.9182 C.3     1  UNL1        0.0005
      4 C         139.1629  139.8990  166.1475 C.3     1  UNL1        0.0005
      5 C         139.0156  140.8447  164.9925 C.3     1  UNL1        0.0095
      6 C         138.7979  140.3097  163.6082 C.3     1  UNL1        0.0840
      7 C         138.6505  141.2554  162.4533 C.2     1  UNL1        0.2261
      8 O         137.3008  141.8097  162.1053 O.2     1  UNL1       -0.2748
      9 N         139.8528  141.6468  161.6463 N.am    1  UNL1       -0.2814
     10 H         140.7387  141.2830  161.8747 H       1  UNL1        0.1549
     11 C         139.7055  142.5925  160.4913 C.ar    1  UNL1        0.0935
     12 C         138.8244  142.3916  159.2941 C.ar    1  UNL1        0.1364
     13 N         138.9877  143.5800  158.3937 N.ar    1  UNL1       -0.1662
     14 N         139.9698  144.5155  159.0343 N.ar    1  UNL1       -0.2430
     15 C         140.4279  145.8304  158.4765 C.3     1  UNL1        0.1539
     16 C         140.4134  143.9051  160.3307 C.ar    1  UNL1        0.1480
     17 C         141.3930  144.5026  161.2969 C.2     1  UNL1        0.2866
     18 O         140.9332  145.5202  162.2983 O.2     1  UNL1       -0.2664
     19 N         142.8325  144.0822  161.2618 N.am    1  UNL1       -0.1886
     20 H         143.1344  143.4143  160.6045 H       1  UNL1        0.1829
     21 O         143.8121  144.6797  162.2280 O.3     1  UNL1       -0.2712
     22 C         144.1598  143.9495  163.4912 C.3     1  UNL1        0.1173
     23 C         144.5863  142.7585  162.6853 C.3     1  UNL1        0.0321
     24 C         143.7332  145.1405  164.2972 C.3     1  UNL1        0.0321
     25 C         144.5074  143.2192  164.7545 C.3     1  UNL1        0.0321
     26 C         138.5098  138.2940  161.9945 C.2     1  UNL1        0.1731
     27 O         137.2144  137.6235  161.6447 O.2     1  UNL1       -0.2913
     28 C         141.7427  138.7006  158.8909 C.ar    1  UNL1        0.0194
     29 C         140.3070  138.9096  158.5101 C.ar    1  UNL1        0.0016
     30 C         139.2294  138.7740  159.5446 C.ar    1  UNL1        0.0029
     31 C         139.5875  138.4295  160.9600 C.ar    1  UNL1        0.0347
     32 C         141.0232  138.2206  161.3407 C.ar    1  UNL1        0.0029
     33 C         142.1008  138.3561  160.3062 C.ar    1  UNL1        0.0016
     34 C         145.5481  140.7211  155.8384 C.3     1  UNL1        0.0515
     35 C         144.5696  139.7649  156.4533 C.ar    1  UNL1        0.0535
     36 C         143.6008  140.0810  157.5539 C.ar    1  UNL1        0.0349
     37 C         142.8204  138.8362  157.8563 C.ar    1  UNL1        0.1018
     38 N         143.3070  137.7507  156.9425 N.ar    1  UNL1       -0.1730
     39 N         144.3880  138.3246  156.0754 N.ar    1  UNL1       -0.2798
     40 H         144.8902  137.8410  155.3803 H       1  UNL1        0.1886
@<TRIPOS>BOND
     1    34    35    1
     2    35    36   ar
     3    36    37   ar
     4    37    28    1
     5    28    29   ar
     6    29    30   ar
     7    30    31   ar
     8    31    26    1
     9    26    27    2
    10     1    26    1
    11     1     2    1
    12     2     3    1
    13     3     4    1
    14     4     5    1
    15     5     6    1
    16     6     7    1
    17     7     8    2
    18     7     9   am
    19     9    11    1
    20    11    12   ar
    21    12    13   ar
    22    13    14   ar
    23    14    15    1
    24    14    16   ar
    25    16    17    1
    26    17    18    2
    27    17    19   am
    28    19    21    1
    29    21    22    1
    30    22    23    1
    31    22    24    1
    32    22    25    1
    33    31    32   ar
    34    32    33   ar
    35    37    38   ar
    36    38    39   ar
    37    39    35   ar
    38    33    28   ar
    39     6     1    1
    40    16    11   ar
    41     9    10    1
    42    19    20    1
    43    39    40    1
@<TRIPOS>MOLECULE
*****
 40 43 0 0 0
SMALL
GASTEIGER

@<TRIPOS>ATOM
      1 C         139.3845  138.4106  164.9844 C.3     1  UNL1        0.0705
      2 C         138.2038  137.6842  165.5574 C.3     1  UNL1        0.0082
      3 C         137.6625  138.0750  166.9007 C.3     1  UNL1        0.0005
      4 C         138.3019  139.1920  167.6710 C.3     1  UNL1        0.0005
      5 C         139.4827  139.9183  167.0980 C.3     1  UNL1        0.0095
      6 C         140.0240  139.5277  165.7548 C.3     1  UNL1        0.0840
      7 C         141.2047  140.2540  165.1818 C.2     1  UNL1        0.2261
      8 O         141.4020  141.7121  165.4734 O.2     1  UNL1       -0.2748
      9 N         142.1881  139.5223  164.3173 N.am    1  UNL1       -0.2814
     10 H         142.0586  138.5653  164.1259 H       1  UNL1        0.1549
     11 C         143.3689  140.2486  163.7443 C.ar    1  UNL1        0.0935
     12 C         144.8030  140.0459  164.1345 C.ar    1  UNL1        0.1364
     13 N         145.6433  140.9772  163.3119 N.ar    1  UNL1       -0.1662
     14 N         144.7285  141.7555  162.4134 N.ar    1  UNL1       -0.2430
     15 C         145.1460  142.8006  161.4217 C.3     1  UNL1        0.1539
     16 C         143.3228  141.3052  162.6806 C.ar    1  UNL1        0.1480
     17 C         142.0879  141.8209  162.0031 C.2     1  UNL1        0.2866
     18 O         141.7562  141.3770  160.6093 O.2     1  UNL1       -0.2664
     19 N         141.1847  142.7807  162.7194 N.am    1  UNL1       -0.1886
     20 H         141.4024  143.0721  163.6343 H       1  UNL1        0.1829
     21 O         139.9498  143.2965  162.0419 O.3     1  UNL1       -0.2712
     22 C         139.7813  144.7687  161.8095 C.3     1  UNL1        0.1173
     23 C         140.1349  144.5809  160.3639 C.3     1  UNL1        0.0321
     24 C         139.4277  144.9565  163.2550 C.3     1  UNL1        0.0321
     25 C         139.6128  146.2410  161.5770 C.3     1  UNL1        0.0321
     26 C         139.9259  138.0199  163.6412 C.2     1  UNL1        0.1731
     27 O         140.9598  136.9384  163.5349 O.2     1  UNL1       -0.2913
     28 C         138.4481  140.0923  159.9302 C.ar    1  UNL1        0.0194
     29 C         139.4567  138.9875  159.8210 C.ar    1  UNL1        0.0016
     30 C         139.9493  138.2967  161.0580 C.ar    1  UNL1        0.0029
     31 C         139.4332  138.7108  162.4042 C.ar    1  UNL1        0.0347
     32 C         138.4246  139.8156  162.5134 C.ar    1  UNL1        0.0029
     33 C         137.9321  140.5064  161.2764 C.ar    1  UNL1        0.0016
     34 C         138.0017  143.4999  155.9215 C.3     1  UNL1        0.0515
     35 C         137.7503  142.3495  156.8506 C.ar    1  UNL1        0.0535
     36 C         138.5604  142.0034  158.0647 C.ar    1  UNL1        0.0349
     37 C         137.9555  140.7832  158.6932 C.ar    1  UNL1        0.1018
     38 N         136.7715  140.3751  157.8676 N.ar    1  UNL1       -0.1730
     39 N         136.6447  141.3431  156.7288 N.ar    1  UNL1       -0.2798
     40 H         135.9566  141.3217  156.0250 H       1  UNL1        0.1886
@<TRIPOS>BOND
     1    34    35    1
     2    35    36   ar
     3    36    37   ar
     4    37    28    1
     5    28    29   ar
     6    29    30   ar
     7    30    31   ar
     8    31    26    1
     9    26    27    2
    10     1    26    1
    11     1     2    1
    12     2     3    1
    13     3     4    1
    14     4     5    1
    15     5     6    1
    16     6     7    1
    17     7     8    2
    18     7     9   am
    19     9    11    1
    20    11    12   ar
    21    12    13   ar
    22    13    14   ar
    23    14    15    1
    24    14    16   ar
    25    16    17    1
    26    17    18    2
    27    17    19   am
    28    19    21    1
    29    21    22    1
    30    22    23    1
    31    22    24    1
    32    22    25    1
    33    31    32   ar
    34    32    33   ar
    35    37    38   ar
    36    38    39   ar
    37    39    35   ar
    38    33    28   ar
    39     6     1    1
    40    16    11   ar
    41     9    10    1
    42    19    20    1
    43    39    40    1
@<TRIPOS>MOLECULE
*****
 40 43 0 0 0
SMALL
GASTEIGER

@<TRIPOS>ATOM
      1 C         138.9534  143.3835  162.3187 C.3     1  UNL1        0.0705
      2 C         138.6635  144.7642  162.8283 C.3     1  UNL1        0.0082
      3 C         139.3022  145.9541  162.1753 C.3     1  UNL1        0.0005
      4 C         140.2307  145.7633  161.0129 C.3     1  UNL1        0.0005
      5 C         140.5206  144.3826  160.5033 C.3     1  UNL1        0.0095
      6 C         139.8820  143.1928  161.1562 C.3     1  UNL1        0.0840
      7 C         140.1719  141.8121  160.6466 C.2     1  UNL1        0.2261
      8 O         140.4101  140.6904  161.6137 O.2     1  UNL1       -0.2748
      9 N         140.2236  141.5531  159.1701 N.am    1  UNL1       -0.2814
     10 H         140.0673  142.2893  158.5354 H       1  UNL1        0.1549
     11 C         140.5136  140.1724  158.6605 C.ar    1  UNL1        0.0935
     12 C         139.5605  139.2923  157.9075 C.ar    1  UNL1        0.1364
     13 N         140.2653  138.0053  157.5961 N.ar    1  UNL1       -0.1662
     14 N         141.6541  138.0901  158.1567 N.ar    1  UNL1       -0.2430
     15 C         142.7049  137.0229  158.0740 C.3     1  UNL1        0.1539
     16 C         141.8075  139.4294  158.8145 C.ar    1  UNL1        0.1480
     17 C         143.0386  139.9366  159.5051 C.2     1  UNL1        0.2866
     18 O         144.0902  140.6666  158.7234 O.2     1  UNL1       -0.2664
     19 N         143.2183  139.7137  160.9777 N.am    1  UNL1       -0.1886
     20 H         142.5281  139.2345  161.4908 H       1  UNL1        0.1829
     21 O         144.4495  140.2209  161.6683 O.3     1  UNL1       -0.2712
     22 C         144.3615  140.7398  163.0729 C.3     1  UNL1        0.1173
     23 C         145.3615  141.8074  162.7410 C.3     1  UNL1        0.0321
     24 C         143.3614  139.6722  163.4047 C.3     1  UNL1        0.0321
     25 C         144.2735  141.2588  164.4774 C.3     1  UNL1        0.0321
     26 C         138.3148  142.1937  162.9716 C.2     1  UNL1        0.1731
     27 O         137.1485  141.5148  162.3167 O.2     1  UNL1       -0.2913
     28 C         139.8978  140.6606  166.8951 C.ar    1  UNL1        0.0194
     29 C         140.4937  141.8893  166.2746 C.ar    1  UNL1        0.0016
     30 C         139.9661  142.4003  164.9668 C.ar    1  UNL1        0.0029
     31 C         138.8425  141.6826  164.2795 C.ar    1  UNL1        0.0347
     32 C         138.2465  140.4539  164.9000 C.ar    1  UNL1        0.0029
     33 C         138.7742  139.9428  166.2077 C.ar    1  UNL1        0.0016
     34 C         143.1566  138.8288  170.6242 C.3     1  UNL1        0.0515
     35 C         141.9234  139.3075  169.9170 C.ar    1  UNL1        0.0535
     36 C         141.8454  139.7593  168.4888 C.ar    1  UNL1        0.0349
     37 C         140.4255  140.1495  168.2029 C.ar    1  UNL1        0.1018
     38 N         139.6260  139.9389  169.4545 N.ar    1  UNL1       -0.1730
     39 N         140.5517  139.4185  170.5138 N.ar    1  UNL1       -0.2798
     40 H         140.3027  139.1900  171.4385 H       1  UNL1        0.1886
@<TRIPOS>BOND
     1    34    35    1
     2    35    36   ar
     3    36    37   ar
     4    37    28    1
     5    28    29   ar
     6    29    30   ar
     7    30    31   ar
     8    31    26    1
     9    26    27    2
    10     1    26    1
    11     1     2    1
    12     2     3    1
    13     3     4    1
    14     4     5    1
    15     5     6    1
    16     6     7    1
    17     7     8    2
    18     7     9   am
    19     9    11    1
    20    11    12   ar
    21    12    13   ar
    22    13    14   ar
    23    14    15    1
    24    14    16   ar
    25    16    17    1
    26    17    18    2
    27    17    19   am
    28    19    21    1
    29    21    22    1
    30    22    23    1
    31    22    24    1
    32    22    25    1
    33    31    32   ar
    34    32    33   ar
    35    37    38   ar
    36    38    39   ar
    37    39    35   ar
    38    33    28   ar
    39     6     1    1
    40    16    11   ar
    41     9    10    1
    42    19    20    1
    43    39    40    1
@<TRIPOS>MOLECULE
*****
 40 43 0 0 0
SMALL
GASTEIGER

@<TRIPOS>ATOM
      1 C         143.3120  142.1045  166.7137 C.3     1  UNL1        0.0705
      2 C         142.8964  142.4401  168.1154 C.3     1  UNL1        0.0082
      3 C         142.2703  141.3895  168.9839 C.3     1  UNL1        0.0005
      4 C         142.0597  140.0034  168.4508 C.3     1  UNL1        0.0005
      5 C         142.4752  139.6678  167.0491 C.3     1  UNL1        0.0095
      6 C         143.1013  140.7183  166.1806 C.3     1  UNL1        0.0840
      7 C         143.5169  140.3827  164.7789 C.2     1  UNL1        0.2261
      8 O         144.9385  140.5911  164.3478 O.2     1  UNL1       -0.2748
      9 N         142.5109  139.8386  163.8083 N.am    1  UNL1       -0.2814
     10 H         141.5779  139.7018  164.0913 H       1  UNL1        0.1549
     11 C         142.9265  139.5030  162.4066 C.ar    1  UNL1        0.0935
     12 C         144.1867  138.7949  162.0063 C.ar    1  UNL1        0.1364
     13 N         144.1939  138.6708  160.5114 N.ar    1  UNL1       -0.1662
     14 N         142.9380  139.3022  159.9879 N.ar    1  UNL1       -0.2430
     15 C         142.5359  139.4019  158.5462 C.3     1  UNL1        0.1539
     16 C         142.1547  139.8165  161.1592 C.ar    1  UNL1        0.1480
     17 C         140.8319  140.5208  161.0945 C.2     1  UNL1        0.2866
     18 O         140.6336  141.6578  160.1365 O.2     1  UNL1       -0.2664
     19 N         139.7072  140.0879  161.9878 N.am    1  UNL1       -0.1886
     20 H         139.8373  139.3416  162.6166 H       1  UNL1        0.1829
     21 O         138.3844  140.7921  161.9230 O.3     1  UNL1       -0.2712
     22 C         137.9937  141.7550  163.0047 C.3     1  UNL1        0.1173
     23 C         138.0728  140.6504  164.0164 C.3     1  UNL1        0.0321
     24 C         137.9146  142.8596  161.9930 C.3     1  UNL1        0.0321
     25 C         137.6030  142.7179  164.0865 C.3     1  UNL1        0.0321
     26 C         143.9381  143.1550  165.8452 C.2     1  UNL1        0.1731
     27 O         145.2674  143.7416  166.2177 O.2     1  UNL1       -0.2913
     28 C         141.8287  144.5467  162.1218 C.ar    1  UNL1        0.0194
     29 C         143.3169  144.3591  162.1150 C.ar    1  UNL1        0.0016
     30 C         144.0200  143.8952  163.3561 C.ar    1  UNL1        0.0029
     31 C         143.2349  143.6189  164.6040 C.ar    1  UNL1        0.0347
     32 C         141.7467  143.8065  164.6109 C.ar    1  UNL1        0.0029
     33 C         141.0436  144.2704  163.3698 C.ar    1  UNL1        0.0016
     34 C         140.6592  145.4491  157.0524 C.3     1  UNL1        0.0515
     35 C         140.5880  145.4254  158.5505 C.ar    1  UNL1        0.0535
     36 C         141.5932  144.7994  159.4712 C.ar    1  UNL1        0.0349
     37 C         141.1255  145.0106  160.8807 C.ar    1  UNL1        0.1018
     38 N         139.8313  145.7672  160.8312 N.ar    1  UNL1       -0.1730
     39 N         139.4990  146.0236  159.3911 N.ar    1  UNL1       -0.2798
     40 H         138.7056  146.5007  159.0563 H       1  UNL1        0.1886
@<TRIPOS>BOND
     1    34    35    1
     2    35    36   ar
     3    36    37   ar
     4    37    28    1
     5    28    29   ar
     6    29    30   ar
     7    30    31   ar
     8    31    26    1
     9    26    27    2
    10     1    26    1
    11     1     2    1
    12     2     3    1
    13     3     4    1
    14     4     5    1
    15     5     6    1
    16     6     7    1
    17     7     8    2
    18     7     9   am
    19     9    11    1
    20    11    12   ar
    21    12    13   ar
    22    13    14   ar
    23    14    15    1
    24    14    16   ar
    25    16    17    1
    26    17    18    2
    27    17    19   am
    28    19    21    1
    29    21    22    1
    30    22    23    1
    31    22    24    1
    32    22    25    1
    33    31    32   ar
    34    32    33   ar
    35    37    38   ar
    36    38    39   ar
    37    39    35   ar
    38    33    28   ar
    39     6     1    1
    40    16    11   ar
    41     9    10    1
    42    19    20    1
    43    39    40    1
@<TRIPOS>MOLECULE
*****
 40 43 0 0 0
SMALL
GASTEIGER

@<TRIPOS>ATOM
      1 C         140.3670  143.0465  160.2468 C.3     1  UNL1        0.0705
      2 C         139.7616  144.3572  160.6536 C.3     1  UNL1        0.0082
      3 C         140.3248  145.6412  160.1203 C.3     1  UNL1        0.0005
      4 C         141.4933  145.6145  159.1803 C.3     1  UNL1        0.0005
      5 C         142.0988  144.3038  158.7735 C.3     1  UNL1        0.0095
      6 C         141.5356  143.0198  159.3067 C.3     1  UNL1        0.0840
      7 C         142.1411  141.7091  158.8998 C.2     1  UNL1        0.2261
      8 O         142.9875  140.9404  159.8708 O.2     1  UNL1       -0.2748
      9 N         141.9001  141.1671  157.5221 N.am    1  UNL1       -0.2814
     10 H         141.3445  141.6716  156.8849 H       1  UNL1        0.1549
     11 C         142.5055  139.8564  157.1153 C.ar    1  UNL1        0.0935
     12 C         143.6399  139.6705  156.1517 C.ar    1  UNL1        0.1364
     13 N         143.9184  138.2007  156.0415 N.ar    1  UNL1       -0.1662
     14 N         142.9560  137.4782  156.9370 N.ar    1  UNL1       -0.2430
     15 C         142.8801  135.9931  157.1342 C.3     1  UNL1        0.1539
     16 C         142.0828  138.5015  157.6006 C.ar    1  UNL1        0.1480
     17 C         140.9805  138.2194  158.5780 C.2     1  UNL1        0.2866
     18 O         139.6278  137.8014  158.0828 O.2     1  UNL1       -0.2664
     19 N         141.2310  138.3552  160.0508 N.am    1  UNL1       -0.1886
     20 H         142.1188  138.6295  160.3759 H       1  UNL1        0.1829
     21 O         140.1286  138.0731  161.0282 O.3     1  UNL1       -0.2712
     22 C         140.4585  137.6842  162.4388 C.3     1  UNL1        0.1173
     23 C         138.9962  137.6502  162.7712 C.3     1  UNL1        0.0321
     24 C         141.9208  137.7183  162.1064 C.3     1  UNL1        0.0321
     25 C         140.7882  137.2954  163.8495 C.3     1  UNL1        0.0321
     26 C         139.8039  141.7626  160.7800 C.2     1  UNL1        0.1731
     27 O         139.0767  140.8245  159.8628 O.2     1  UNL1       -0.2913
     28 C         140.2963  140.7250  165.1309 C.ar    1  UNL1        0.0194
     29 C         141.5054  140.9258  164.2663 C.ar    1  UNL1        0.0016
     30 C         141.3413  141.2717  162.8160 C.ar    1  UNL1        0.0029
     31 C         139.9680  141.4167  162.2303 C.ar    1  UNL1        0.0347
     32 C         138.7588  141.2158  163.0949 C.ar    1  UNL1        0.0029
     33 C         138.9230  140.8700  164.5452 C.ar    1  UNL1        0.0016
     34 C         142.4672  139.6461  169.8218 C.3     1  UNL1        0.0515
     35 C         141.4583  139.8832  168.7374 C.ar    1  UNL1        0.0535
     36 C         141.7628  140.2346  167.3113 C.ar    1  UNL1        0.0349
     37 C         140.4604  140.3791  166.5813 C.ar    1  UNL1        0.1018
     38 N         139.3510  140.1170  167.5562 N.ar    1  UNL1       -0.1730
     39 N         139.9676  139.8105  168.8887 N.ar    1  UNL1       -0.2798
     40 H         139.4797  139.5988  169.7172 H       1  UNL1        0.1886
@<TRIPOS>BOND
     1    34    35    1
     2    35    36   ar
     3    36    37   ar
     4    37    28    1
     5    28    29   ar
     6    29    30   ar
     7    30    31   ar
     8    31    26    1
     9    26    27    2
    10     1    26    1
    11     1     2    1
    12     2     3    1
    13     3     4    1
    14     4     5    1
    15     5     6    1
    16     6     7    1
    17     7     8    2
    18     7     9   am
    19     9    11    1
    20    11    12   ar
    21    12    13   ar
    22    13    14   ar
    23    14    15    1
    24    14    16   ar
    25    16    17    1
    26    17    18    2
    27    17    19   am
    28    19    21    1
    29    21    22    1
    30    22    23    1
    31    22    24    1
    32    22    25    1
    33    31    32   ar
    34    32    33   ar
    35    37    38   ar
    36    38    39   ar
    37    39    35   ar
    38    33    28   ar
    39     6     1    1
    40    16    11   ar
    41     9    10    1
    42    19    20    1
    43    39    40    1
@<TRIPOS>MOLECULE
*****
 40 43 0 0 0
SMALL
GASTEIGER

@<TRIPOS>ATOM
      1 C         142.0740  144.4626  156.8853 C.3     1  UNL1        0.0705
      2 C         142.4440  144.7625  155.4629 C.3     1  UNL1        0.0082
      3 C         141.6603  145.7753  154.6817 C.3     1  UNL1        0.0005
      4 C         140.5068  146.4880  155.3228 C.3     1  UNL1        0.0005
      5 C         140.1367  146.1881  156.7452 C.3     1  UNL1        0.0095
      6 C         140.9203  145.1754  157.5264 C.3     1  UNL1        0.0840
      7 C         140.5503  144.8755  158.9488 C.2     1  UNL1        0.2261
      8 O         139.3953  143.9661  159.2475 O.2     1  UNL1       -0.2748
      9 N         141.3352  145.4848  160.0724 N.am    1  UNL1       -0.2814
     10 H         142.0933  146.0817  159.8763 H       1  UNL1        0.1549
     11 C         140.9652  145.1849  161.4947 C.ar    1  UNL1        0.0935
     12 C         139.7898  145.7477  162.2375 C.ar    1  UNL1        0.1364
     13 N         139.8038  145.1802  163.6259 N.ar    1  UNL1       -0.1662
     14 N         140.9879  144.2666  163.7413 N.ar    1  UNL1       -0.2430
     15 C         141.3845  143.4869  164.9598 C.3     1  UNL1        0.1539
     16 C         141.7056  144.2695  162.4242 C.ar    1  UNL1        0.1480
     17 C         142.9461  143.4933  162.0944 C.2     1  UNL1        0.2866
     18 O         144.2932  144.1390  162.2300 O.2     1  UNL1       -0.2664
     19 N         142.8395  142.0713  161.6289 N.am    1  UNL1       -0.1886
     20 H         141.9554  141.6474  161.5399 H       1  UNL1        0.1829
     21 O         144.0800  141.2951  161.2992 O.3     1  UNL1       -0.2712
     22 C         144.0791  139.7990  161.4064 C.3     1  UNL1        0.1173
     23 C         144.3451  139.9044  162.8788 C.3     1  UNL1        0.0321
     24 C         143.8132  139.6935  159.9339 C.3     1  UNL1        0.0321
     25 C         144.0783  138.3028  161.5137 C.3     1  UNL1        0.0321
     26 C         142.8576  143.4498  157.6665 C.2     1  UNL1        0.1731
     27 O         143.5000  143.8379  158.9652 O.2     1  UNL1       -0.2913
     28 C         143.2810  139.2474  156.1141 C.ar    1  UNL1        0.0194
     29 C         141.9594  139.7228  156.6406 C.ar    1  UNL1        0.0016
     30 C         141.8183  141.1236  157.1581 C.ar    1  UNL1        0.0029
     31 C         142.9988  142.0490  157.1490 C.ar    1  UNL1        0.0347
     32 C         144.3204  141.5736  156.6224 C.ar    1  UNL1        0.0029
     33 C         144.4615  140.1728  156.1050 C.ar    1  UNL1        0.0016
     34 C         142.2160  134.6037  153.8374 C.3     1  UNL1        0.0515
     35 C         142.9327  135.7121  154.5501 C.ar    1  UNL1        0.0535
     36 C         142.3617  137.0574  154.8877 C.ar    1  UNL1        0.0349
     37 C         143.4222  137.8465  155.5966 C.ar    1  UNL1        0.1018
     38 N         144.6487  136.9889  155.6971 N.ar    1  UNL1       -0.1730
     39 N         144.3462  135.6697  155.0504 N.ar    1  UNL1       -0.2798
     40 H         144.9665  134.9096  154.9686 H       1  UNL1        0.1886
@<TRIPOS>BOND
     1    34    35    1
     2    35    36   ar
     3    36    37   ar
     4    37    28    1
     5    28    29   ar
     6    29    30   ar
     7    30    31   ar
     8    31    26    1
     9    26    27    2
    10     1    26    1
    11     1     2    1
    12     2     3    1
    13     3     4    1
    14     4     5    1
    15     5     6    1
    16     6     7    1
    17     7     8    2
    18     7     9   am
    19     9    11    1
    20    11    12   ar
    21    12    13   ar
    22    13    14   ar
    23    14    15    1
    24    14    16   ar
    25    16    17    1
    26    17    18    2
    27    17    19   am
    28    19    21    1
    29    21    22    1
    30    22    23    1
    31    22    24    1
    32    22    25    1
    33    31    32   ar
    34    32    33   ar
    35    37    38   ar
    36    38    39   ar
    37    39    35   ar
    38    33    28   ar
    39     6     1    1
    40    16    11   ar
    41     9    10    1
    42    19    20    1
    43    39    40    1
@<TRIPOS>MOLECULE
*****
 40 43 0 0 0
SMALL
GASTEIGER

@<TRIPOS>ATOM
      1 C         139.2540  138.2081  164.5175 C.3     1  UNL1        0.0705
      2 C         138.3746  137.2222  165.2280 C.3     1  UNL1        0.0082
      3 C         137.8261  137.5485  166.5855 C.3     1  UNL1        0.0005
      4 C         138.1570  138.8607  167.2325 C.3     1  UNL1        0.0005
      5 C         139.0363  139.8467  166.5220 C.3     1  UNL1        0.0095
      6 C         139.5848  139.5204  165.1646 C.3     1  UNL1        0.0840
      7 C         140.4642  140.5063  164.4542 C.2     1  UNL1        0.2261
      8 O         141.8102  140.0812  163.9467 O.2     1  UNL1       -0.2748
      9 N         139.9975  141.9173  164.2512 N.am    1  UNL1       -0.2814
     10 H         139.1141  142.1963  164.5842 H       1  UNL1        0.1549
     11 C         140.8768  142.9032  163.5407 C.ar    1  UNL1        0.0935
     12 C         140.5763  143.5685  162.2304 C.ar    1  UNL1        0.1364
     13 N         141.7248  144.4734  161.8957 N.ar    1  UNL1       -0.1662
     14 N         142.7352  144.3675  162.9993 N.ar    1  UNL1       -0.2430
     15 C         144.0405  145.1028  163.0732 C.3     1  UNL1        0.1539
     16 C         142.2111  143.3970  164.0159 C.ar    1  UNL1        0.1480
     17 C         142.9004  142.9916  165.2850 C.2     1  UNL1        0.2866
     18 O         144.3972  142.9068  165.3315 O.2     1  UNL1       -0.2664
     19 N         142.0927  142.6710  166.5077 N.am    1  UNL1       -0.1886
     20 H         141.1102  142.7266  166.4773 H       1  UNL1        0.1829
     21 O         142.7819  142.2655  167.7768 O.3     1  UNL1       -0.2712
     22 C         141.9845  142.0599  169.0305 C.3     1  UNL1        0.1173
     23 C         140.7932  142.6949  168.3769 C.3     1  UNL1        0.0321
     24 C         143.1759  141.4248  169.6842 C.3     1  UNL1        0.0321
     25 C         141.1871  141.8542  170.2842 C.3     1  UNL1        0.0321
     26 C         139.8025  137.8819  163.1601 C.2     1  UNL1        0.1731
     27 O         140.8473  136.8162  163.0097 O.2     1  UNL1       -0.2913
     28 C         138.3134  140.1001  159.5390 C.ar    1  UNL1        0.0194
     29 C         137.4221  139.9300  160.7334 C.ar    1  UNL1        0.0016
     30 C         137.9184  139.1906  161.9404 C.ar    1  UNL1        0.0029
     31 C         139.3061  138.6213  161.9530 C.ar    1  UNL1        0.0347
     32 C         140.1975  138.7914  160.7587 C.ar    1  UNL1        0.0029
     33 C         139.7011  139.5308  159.5517 C.ar    1  UNL1        0.0016
     34 C         137.7034  143.7846  155.8063 C.3     1  UNL1        0.0515
     35 C         137.5367  142.5331  156.6162 C.ar    1  UNL1        0.0535
     36 C         138.3074  142.1733  157.8517 C.ar    1  UNL1        0.0349
     37 C         137.8171  140.8395  158.3320 C.ar    1  UNL1        0.1018
     38 N         136.7433  140.3750  157.3932 N.ar    1  UNL1       -0.1730
     39 N         136.5700  141.4217  156.3329 N.ar    1  UNL1       -0.2798
     40 H         135.9335  141.3855  155.5826 H       1  UNL1        0.1886
@<TRIPOS>BOND
     1    34    35    1
     2    35    36   ar
     3    36    37   ar
     4    37    28    1
     5    28    29   ar
     6    29    30   ar
     7    30    31   ar
     8    31    26    1
     9    26    27    2
    10     1    26    1
    11     1     2    1
    12     2     3    1
    13     3     4    1
    14     4     5    1
    15     5     6    1
    16     6     7    1
    17     7     8    2
    18     7     9   am
    19     9    11    1
    20    11    12   ar
    21    12    13   ar
    22    13    14   ar
    23    14    15    1
    24    14    16   ar
    25    16    17    1
    26    17    18    2
    27    17    19   am
    28    19    21    1
    29    21    22    1
    30    22    23    1
    31    22    24    1
    32    22    25    1
    33    31    32   ar
    34    32    33   ar
    35    37    38   ar
    36    38    39   ar
    37    39    35   ar
    38    33    28   ar
    39     6     1    1
    40    16    11   ar
    41     9    10    1
    42    19    20    1
    43    39    40    1
