@<TRIPOS>MOLECULE
*****
 41 44 0 0 0
SMALL
GASTEIGER

@<TRIPOS>ATOM
      1 C         141.5450  141.2755  163.7594 C.3     1  UNL1        0.0311
      2 C         140.1833  141.8625  163.5333 C.ar    1  UNL1       -0.0188
      3 C         139.2822  142.1386  164.7003 C.ar    1  UNL1       -0.0030
      4 C         137.9206  142.7256  164.4741 C.ar    1  UNL1        0.0013
      5 C         137.4599  143.0366  163.0809 C.ar    1  UNL1        0.0209
      6 C         138.3609  142.7606  161.9139 C.ar    1  UNL1        0.1021
      7 N         138.1818  142.9612  160.4382 N.ar    1  UNL1       -0.1690
      8 N         139.4329  142.4982  159.7523 N.ar    1  UNL1       -0.2472
      9 C         140.3851  142.0114  160.8041 C.ar    1  UNL1        0.0965
     10 C         139.7226  142.1736  162.1400 C.ar    1  UNL1        0.0342
     11 C         139.7430  141.8275  166.0935 C.ar    1  UNL1        0.0103
     12 C         140.5063  142.8535  166.8776 C.ar    1  UNL1        0.0008
     13 C         140.9671  142.5426  168.2707 C.ar    1  UNL1        0.0039
     14 C         140.6646  141.2056  168.8799 C.ar    1  UNL1        0.0723
     15 C         139.9013  140.1796  168.0958 C.ar    1  UNL1        0.0152
     16 C         139.4405  140.4907  166.7026 C.ar    1  UNL1        0.0576
     17 CL        138.6772  139.4647  165.9186 Cl      1  UNL1       -0.0823
     18 C         141.1253  140.8946  170.2731 C.3     1  UNL1        0.4186
     19 F         141.5861  140.5837  171.6662 F       1  UNL1       -0.1659
     20 F         141.3120  139.4564  169.8903 F       1  UNL1       -0.1659
     21 F         140.9386  142.3329  170.6558 F       1  UNL1       -0.1659
     22 C         139.6871  142.5184  158.2742 C.3     1  UNL1        0.1274
     23 C         139.6423  143.8160  157.5231 C.ar    1  UNL1       -0.0001
     24 C         140.3946  145.0072  158.0382 C.ar    1  UNL1       -0.0023
     25 C         140.3497  146.3047  157.2871 C.ar    1  UNL1        0.0042
     26 C         139.5527  146.4113  156.0208 C.ar    1  UNL1        0.0533
     27 C         138.8004  145.2202  155.5057 C.ar    1  UNL1        0.0042
     28 C         138.8453  143.9225  156.2569 C.ar    1  UNL1       -0.0023
     29 C         139.5079  147.7089  155.2698 C.2     1  UNL1        0.2459
     30 O         140.1223  147.8071  153.9049 O.2     1  UNL1       -0.2701
     31 N         138.8487  148.9084  155.8836 N.am    1  UNL1       -0.3005
     32 H         138.4454  148.8440  156.7794 H       1  UNL1        0.1498
     33 C         138.8039  150.2060  155.1324 C.3     1  UNL1        0.0956
     34 C         138.8531  151.5064  155.8784 C.3     1  UNL1        0.0629
     35 C         138.5852  152.7947  155.1583 C.2     1  UNL1        0.0520
     36 O         138.7117  154.1006  155.8854 O.co2   1  UNL1       -0.5491
     37 O         138.1908  152.7772  153.7112 O.co2   1  UNL1       -0.5491
     38 C         139.9862  141.2409  157.5471 C.3     1  UNL1        0.0289
     39 C         138.8631  140.3953  157.0237 C.3     1  UNL1        0.0023
     40 C         137.4420  140.7568  157.3395 C.3     1  UNL1        0.0001
     41 C         139.1612  139.1883  156.1846 C.3     1  UNL1        0.0001
@<TRIPOS>UNITY_ATOM_ATTR
36 1
charge -1
@<TRIPOS>BOND
     1     1     2    1
     2     2     3   ar
     3     3    11    1
     4    11    12   ar
     5    12    13   ar
     6    13    14   ar
     7    14    18    1
     8    18    19    1
     9    18    20    1
    10    18    21    1
    11    14    15   ar
    12    15    16   ar
    13    16    17    1
    14     3     4   ar
    15     4     5   ar
    16     5     6   ar
    17     6     7   ar
    18     7     8   ar
    19     8    22    1
    20    22    38    1
    21    38    39    1
    22    39    40    1
    23    39    41    1
    24    22    23    1
    25    23    24   ar
    26    24    25   ar
    27    25    26   ar
    28    26    29    1
    29    29    30    2
    30    29    31   am
    31    31    33    1
    32    33    34    1
    33    34    35    1
    34    35    36   ar
    35    35    37   ar
    36    26    27   ar
    37    27    28   ar
    38     8     9   ar
    39     9    10   ar
    40    10     2   ar
    41    16    11   ar
    42    10     6   ar
    43    28    23   ar
    44    31    32    1
@<TRIPOS>MOLECULE
*****
 41 44 0 0 0
SMALL
GASTEIGER

@<TRIPOS>ATOM
      1 C         141.6464  141.1079  163.6668 C.3     1  UNL1        0.0311
      2 C         140.3994  141.8420  163.2717 C.ar    1  UNL1       -0.0188
      3 C         139.3915  142.2238  164.3148 C.ar    1  UNL1       -0.0030
      4 C         138.1446  142.9579  163.9198 C.ar    1  UNL1        0.0013
      5 C         137.9055  143.3103  162.4815 C.ar    1  UNL1        0.0209
      6 C         138.9134  142.9286  161.4383 C.ar    1  UNL1        0.1021
      7 N         138.9503  143.1393  159.9536 N.ar    1  UNL1       -0.1690
      8 N         140.2201  142.5354  159.4311 N.ar    1  UNL1       -0.2472
      9 C         140.9680  141.9515  160.5929 C.ar    1  UNL1        0.0965
     10 C         140.1604  142.1944  161.8334 C.ar    1  UNL1        0.0342
     11 C         139.6306  141.8713  165.7532 C.ar    1  UNL1        0.0103
     12 C         140.3312  142.8422  166.6567 C.ar    1  UNL1        0.0008
     13 C         140.5704  142.4898  168.0950 C.ar    1  UNL1        0.0039
     14 C         140.1088  141.1666  168.6297 C.ar    1  UNL1        0.0723
     15 C         139.4081  140.1957  167.7262 C.ar    1  UNL1        0.0152
     16 C         139.1690  140.5481  166.2879 C.ar    1  UNL1        0.0576
     17 CL        138.4683  139.5773  165.3843 Cl      1  UNL1       -0.0823
     18 C         140.3479  140.8142  170.0680 C.3     1  UNL1        0.4186
     19 F         140.5870  140.4619  171.5063 F       1  UNL1       -0.1659
     20 F         138.9471  140.2880  170.1720 F       1  UNL1       -0.1659
     21 F         141.7487  141.3405  169.9641 F       1  UNL1       -0.1659
     22 C         140.6640  142.5185  157.9985 C.3     1  UNL1        0.1274
     23 C         141.3478  141.3061  157.4394 C.ar    1  UNL1       -0.0001
     24 C         142.8417  141.2821  157.3061 C.ar    1  UNL1       -0.0023
     25 C         143.5254  140.0696  156.7471 C.ar    1  UNL1        0.0042
     26 C         142.7152  138.8811  156.3214 C.ar    1  UNL1        0.0533
     27 C         141.2214  138.9051  156.4547 C.ar    1  UNL1        0.0042
     28 C         140.5377  140.1176  157.0137 C.ar    1  UNL1       -0.0023
     29 C         143.3990  137.6687  155.7624 C.2     1  UNL1        0.2459
     30 O         144.8947  137.6344  155.6540 O.2     1  UNL1       -0.2701
     31 N         142.5871  136.4907  155.3117 N.am    1  UNL1       -0.3005
     32 H         141.6054  136.5133  155.3828 H       1  UNL1        0.1498
     33 C         143.2710  135.2783  154.7527 C.3     1  UNL1        0.0956
     34 C         142.8631  133.9093  155.2104 C.3     1  UNL1        0.0629
     35 C         142.9358  133.5524  156.6655 C.2     1  UNL1        0.0520
     36 O         142.5808  132.1665  157.1164 O.co2   1  UNL1       -0.5491
     37 O         143.3635  134.5813  157.6697 O.co2   1  UNL1       -0.5491
     38 C         140.4242  143.7140  157.1248 C.3     1  UNL1        0.0289
     39 C         141.5337  144.6907  156.8691 C.3     1  UNL1        0.0023
     40 C         142.3395  144.5969  155.6075 C.3     1  UNL1        0.0001
     41 C         141.8372  145.7611  157.8751 C.3     1  UNL1        0.0001
@<TRIPOS>UNITY_ATOM_ATTR
36 1
charge -1
@<TRIPOS>BOND
     1     1     2    1
     2     2     3   ar
     3     3    11    1
     4    11    12   ar
     5    12    13   ar
     6    13    14   ar
     7    14    18    1
     8    18    19    1
     9    18    20    1
    10    18    21    1
    11    14    15   ar
    12    15    16   ar
    13    16    17    1
    14     3     4   ar
    15     4     5   ar
    16     5     6   ar
    17     6     7   ar
    18     7     8   ar
    19     8    22    1
    20    22    38    1
    21    38    39    1
    22    39    40    1
    23    39    41    1
    24    22    23    1
    25    23    24   ar
    26    24    25   ar
    27    25    26   ar
    28    26    29    1
    29    29    30    2
    30    29    31   am
    31    31    33    1
    32    33    34    1
    33    34    35    1
    34    35    36   ar
    35    35    37   ar
    36    26    27   ar
    37    27    28   ar
    38     8     9   ar
    39     9    10   ar
    40    10     2   ar
    41    16    11   ar
    42    10     6   ar
    43    28    23   ar
    44    31    32    1
@<TRIPOS>MOLECULE
*****
 41 44 0 0 0
SMALL
GASTEIGER

@<TRIPOS>ATOM
      1 C         140.5628  141.0670  163.4113 C.3     1  UNL1        0.0311
      2 C         141.4204  142.2790  163.1980 C.ar    1  UNL1       -0.0188
      3 C         142.0338  142.9801  164.3736 C.ar    1  UNL1       -0.0030
      4 C         142.8914  144.1920  164.1603 C.ar    1  UNL1        0.0013
      5 C         143.1358  144.7030  162.7713 C.ar    1  UNL1        0.0209
      6 C         142.5224  144.0019  161.5957 C.ar    1  UNL1        0.1021
      7 N         142.5848  144.2720  160.1215 N.ar    1  UNL1       -0.1690
      8 N         141.7656  143.2269  159.4238 N.ar    1  UNL1       -0.2472
      9 C         141.1970  142.3109  160.4666 C.ar    1  UNL1        0.0965
     10 C         141.6647  142.7899  161.8090 C.ar    1  UNL1        0.0342
     11 C         141.7895  142.4691  165.7627 C.ar    1  UNL1        0.0103
     12 C         142.7760  141.5387  166.4038 C.ar    1  UNL1        0.0008
     13 C         142.5318  141.0277  167.7927 C.ar    1  UNL1        0.0039
     14 C         141.3010  141.4471  168.5406 C.ar    1  UNL1        0.0723
     15 C         140.3145  142.3775  167.8995 C.ar    1  UNL1        0.0152
     16 C         140.5588  142.8885  166.5104 C.ar    1  UNL1        0.0576
     17 CL        139.5723  143.8189  165.8693 Cl      1  UNL1       -0.0823
     18 C         141.0568  140.9361  169.9295 C.3     1  UNL1        0.4186
     19 F         140.8125  140.4252  171.3185 F       1  UNL1       -0.1659
     20 F         141.3960  142.2871  170.4862 F       1  UNL1       -0.1659
     21 F         140.7176  139.5852  169.3729 F       1  UNL1       -0.1659
     22 C         141.5525  143.1171  157.9430 C.3     1  UNL1        0.1274
     23 C         140.2737  142.5423  157.4099 C.ar    1  UNL1       -0.0001
     24 C         140.3018  141.2959  156.5759 C.ar    1  UNL1       -0.0023
     25 C         139.0230  140.7211  156.0428 C.ar    1  UNL1        0.0042
     26 C         137.7159  141.3928  156.3438 C.ar    1  UNL1        0.0533
     27 C         137.6877  142.6392  157.1779 C.ar    1  UNL1        0.0042
     28 C         138.9667  143.2139  157.7109 C.ar    1  UNL1       -0.0023
     29 C         136.4371  140.8180  155.8107 C.2     1  UNL1        0.2459
     30 O         136.3959  139.3973  155.3313 O.2     1  UNL1       -0.2701
     31 N         135.1995  141.6639  155.7571 N.am    1  UNL1       -0.3005
     32 H         135.2266  142.5963  156.0718 H       1  UNL1        0.1498
     33 C         133.9207  141.0889  155.2240 C.3     1  UNL1        0.0956
     34 C         132.8427  140.6519  156.1711 C.3     1  UNL1        0.0629
     35 C         133.0302  139.4177  157.0027 C.2     1  UNL1        0.0520
     36 O         132.0911  138.2584  156.8467 O.co2   1  UNL1       -0.5491
     37 O         134.1567  139.3427  157.9903 O.co2   1  UNL1       -0.5491
     38 C         142.6182  143.5821  156.9954 C.3     1  UNL1        0.0289
     39 C         142.3207  144.6718  156.0084 C.3     1  UNL1        0.0023
     40 C         142.8588  144.5854  154.6110 C.3     1  UNL1        0.0001
     41 C         141.4851  145.8480  156.4189 C.3     1  UNL1        0.0001
@<TRIPOS>UNITY_ATOM_ATTR
36 1
charge -1
@<TRIPOS>BOND
     1     1     2    1
     2     2     3   ar
     3     3    11    1
     4    11    12   ar
     5    12    13   ar
     6    13    14   ar
     7    14    18    1
     8    18    19    1
     9    18    20    1
    10    18    21    1
    11    14    15   ar
    12    15    16   ar
    13    16    17    1
    14     3     4   ar
    15     4     5   ar
    16     5     6   ar
    17     6     7   ar
    18     7     8   ar
    19     8    22    1
    20    22    38    1
    21    38    39    1
    22    39    40    1
    23    39    41    1
    24    22    23    1
    25    23    24   ar
    26    24    25   ar
    27    25    26   ar
    28    26    29    1
    29    29    30    2
    30    29    31   am
    31    31    33    1
    32    33    34    1
    33    34    35    1
    34    35    36   ar
    35    35    37   ar
    36    26    27   ar
    37    27    28   ar
    38     8     9   ar
    39     9    10   ar
    40    10     2   ar
    41    16    11   ar
    42    10     6   ar
    43    28    23   ar
    44    31    32    1
@<TRIPOS>MOLECULE
*****
 41 44 0 0 0
SMALL
GASTEIGER

@<TRIPOS>ATOM
      1 C         141.3740  140.4569  163.8904 C.3     1  UNL1        0.0311
      2 C         140.1144  141.1792  163.5140 C.ar    1  UNL1       -0.0188
      3 C         139.2059  141.7096  164.5833 C.ar    1  UNL1       -0.0030
      4 C         137.9464  142.4319  164.2070 C.ar    1  UNL1        0.0013
      5 C         137.5952  142.6239  162.7613 C.ar    1  UNL1        0.0209
      6 C         138.5037  142.0935  161.6921 C.ar    1  UNL1        0.1021
      7 N         138.4204  142.1309  160.1948 N.ar    1  UNL1       -0.1690
      8 N         139.6286  141.4316  159.6459 N.ar    1  UNL1       -0.2472
      9 C         140.4585  140.9621  160.8038 C.ar    1  UNL1        0.0965
     10 C         139.7633  141.3711  162.0684 C.ar    1  UNL1        0.0342
     11 C         139.5571  141.5176  166.0290 C.ar    1  UNL1        0.0103
     12 C         140.3109  142.5848  166.7657 C.ar    1  UNL1        0.0008
     13 C         140.6622  142.3929  168.2113 C.ar    1  UNL1        0.0039
     14 C         140.2596  141.1338  168.9202 C.ar    1  UNL1        0.0723
     15 C         139.5058  140.0665  168.1835 C.ar    1  UNL1        0.0152
     16 C         139.1546  140.2585  166.7378 C.ar    1  UNL1        0.0576
     17 CL        138.4008  139.1913  166.0010 Cl      1  UNL1       -0.0823
     18 C         140.6108  140.9418  170.3658 C.3     1  UNL1        0.4186
     19 F         140.9621  140.7499  171.8114 F       1  UNL1       -0.1659
     20 F         140.5167  142.4227  170.5853 F       1  UNL1       -0.1659
     21 F         140.7049  139.4610  170.1463 F       1  UNL1       -0.1659
     22 C         139.9503  141.2362  158.1939 C.3     1  UNL1        0.1274
     23 C         140.6112  139.9700  157.7359 C.ar    1  UNL1       -0.0001
     24 C         142.1077  139.8664  157.7249 C.ar    1  UNL1       -0.0023
     25 C         142.7684  138.6001  157.2670 C.ar    1  UNL1        0.0042
     26 C         141.9329  137.4373  156.8201 C.ar    1  UNL1        0.0533
     27 C         140.4366  137.5407  156.8311 C.ar    1  UNL1        0.0042
     28 C         139.7757  138.8071  157.2890 C.ar    1  UNL1       -0.0023
     29 C         142.5938  136.1710  156.3621 C.2     1  UNL1        0.2459
     30 O         144.0792  136.1321  156.1569 O.2     1  UNL1       -0.2701
     31 N         141.7694  134.9436  156.1095 N.am    1  UNL1       -0.3005
     32 H         140.7945  134.9691  156.2442 H       1  UNL1        0.1498
     33 C         142.4304  133.6773  155.6515 C.3     1  UNL1        0.0956
     34 C         142.8781  132.6588  156.6576 C.3     1  UNL1        0.0629
     35 C         144.3325  132.5344  157.0027 C.2     1  UNL1        0.0520
     36 O         144.8592  133.1506  158.2648 O.co2   1  UNL1       -0.5491
     37 O         145.2602  131.7939  156.0857 O.co2   1  UNL1       -0.5491
     38 C         139.6112  142.3071  157.1998 C.3     1  UNL1        0.0289
     39 C         140.4057  142.4339  155.9337 C.3     1  UNL1        0.0023
     40 C         139.8853  141.8384  154.6591 C.3     1  UNL1        0.0001
     41 C         141.7203  143.1561  155.9423 C.3     1  UNL1        0.0001
@<TRIPOS>UNITY_ATOM_ATTR
36 1
charge -1
@<TRIPOS>BOND
     1     1     2    1
     2     2     3   ar
     3     3    11    1
     4    11    12   ar
     5    12    13   ar
     6    13    14   ar
     7    14    18    1
     8    18    19    1
     9    18    20    1
    10    18    21    1
    11    14    15   ar
    12    15    16   ar
    13    16    17    1
    14     3     4   ar
    15     4     5   ar
    16     5     6   ar
    17     6     7   ar
    18     7     8   ar
    19     8    22    1
    20    22    38    1
    21    38    39    1
    22    39    40    1
    23    39    41    1
    24    22    23    1
    25    23    24   ar
    26    24    25   ar
    27    25    26   ar
    28    26    29    1
    29    29    30    2
    30    29    31   am
    31    31    33    1
    32    33    34    1
    33    34    35    1
    34    35    36   ar
    35    35    37   ar
    36    26    27   ar
    37    27    28   ar
    38     8     9   ar
    39     9    10   ar
    40    10     2   ar
    41    16    11   ar
    42    10     6   ar
    43    28    23   ar
    44    31    32    1
@<TRIPOS>MOLECULE
*****
 41 44 0 0 0
SMALL
GASTEIGER

@<TRIPOS>ATOM
      1 C         141.5492  138.7633  162.6666 C.3     1  UNL1        0.0311
      2 C         140.2901  139.0755  161.9134 C.ar    1  UNL1       -0.0188
      3 C         139.0640  139.5208  162.6538 C.ar    1  UNL1       -0.0030
      4 C         137.8051  139.8331  161.9007 C.ar    1  UNL1        0.0013
      5 C         137.7721  139.7000  160.4069 C.ar    1  UNL1        0.0209
      6 C         138.9982  139.2546  159.6664 C.ar    1  UNL1        0.1021
      7 N         139.2642  139.0335  158.2069 N.ar    1  UNL1       -0.1690
      8 N         140.6877  138.5846  158.0580 N.ar    1  UNL1       -0.2472
      9 C         141.3014  138.5283  159.4256 C.ar    1  UNL1        0.0965
     10 C         140.2572  138.9424  160.4196 C.ar    1  UNL1        0.0342
     11 C         139.0970  139.6539  164.1476 C.ar    1  UNL1        0.0103
     12 C         138.5874  138.5384  165.0113 C.ar    1  UNL1        0.0008
     13 C         138.6204  138.6714  166.5050 C.ar    1  UNL1        0.0039
     14 C         139.1630  139.9199  167.1350 C.ar    1  UNL1        0.0723
     15 C         139.6726  141.0354  166.2714 C.ar    1  UNL1        0.0152
     16 C         139.6396  140.9023  164.7776 C.ar    1  UNL1        0.0576
     17 CL        140.1492  142.0178  163.9139 Cl      1  UNL1       -0.0823
     18 C         139.1959  140.0529  168.6288 C.3     1  UNL1        0.4186
     19 F         139.2289  140.1859  170.1225 F       1  UNL1       -0.1659
     20 F         140.4879  140.8090  168.5329 F       1  UNL1       -0.1659
     21 F         137.9040  139.2968  168.7246 F       1  UNL1       -0.1659
     22 C         141.3766  138.2507  156.7681 C.3     1  UNL1        0.1274
     23 C         141.7092  136.8247  156.4428 C.ar    1  UNL1       -0.0001
     24 C         140.8913  136.0753  155.4330 C.ar    1  UNL1       -0.0023
     25 C         141.2240  134.6493  155.1078 C.ar    1  UNL1        0.0042
     26 C         142.3745  133.9726  155.7922 C.ar    1  UNL1        0.0533
     27 C         143.1924  134.7219  156.8019 C.ar    1  UNL1        0.0042
     28 C         142.8597  136.1480  157.1272 C.ar    1  UNL1       -0.0023
     29 C         142.7071  132.5466  155.4668 C.2     1  UNL1        0.2459
     30 O         143.2195  132.1883  154.1034 O.2     1  UNL1       -0.2701
     31 N         142.5273  131.4789  156.5050 N.am    1  UNL1       -0.3005
     32 H         142.1910  131.7140  157.3999 H       1  UNL1        0.1498
     33 C         142.8600  130.0528  156.1795 C.3     1  UNL1        0.0956
     34 C         144.1047  129.4274  156.7358 C.3     1  UNL1        0.0629
     35 C         144.6723  129.9147  158.0360 C.2     1  UNL1        0.0520
     36 O         145.0284  131.3621  158.2033 O.co2   1  UNL1       -0.5491
     37 O         144.8837  128.9545  159.1688 O.co2   1  UNL1       -0.5491
     38 C         141.7329  139.3427  155.8035 C.3     1  UNL1        0.0289
     39 C         142.9511  139.2110  154.9382 C.3     1  UNL1        0.0023
     40 C         144.3147  139.4261  155.5250 C.3     1  UNL1        0.0001
     41 C         142.8057  138.8642  153.4861 C.3     1  UNL1        0.0001
@<TRIPOS>UNITY_ATOM_ATTR
36 1
charge -1
@<TRIPOS>BOND
     1     1     2    1
     2     2     3   ar
     3     3    11    1
     4    11    12   ar
     5    12    13   ar
     6    13    14   ar
     7    14    18    1
     8    18    19    1
     9    18    20    1
    10    18    21    1
    11    14    15   ar
    12    15    16   ar
    13    16    17    1
    14     3     4   ar
    15     4     5   ar
    16     5     6   ar
    17     6     7   ar
    18     7     8   ar
    19     8    22    1
    20    22    38    1
    21    38    39    1
    22    39    40    1
    23    39    41    1
    24    22    23    1
    25    23    24   ar
    26    24    25   ar
    27    25    26   ar
    28    26    29    1
    29    29    30    2
    30    29    31   am
    31    31    33    1
    32    33    34    1
    33    34    35    1
    34    35    36   ar
    35    35    37   ar
    36    26    27   ar
    37    27    28   ar
    38     8     9   ar
    39     9    10   ar
    40    10     2   ar
    41    16    11   ar
    42    10     6   ar
    43    28    23   ar
    44    31    32    1
@<TRIPOS>MOLECULE
*****
 41 44 0 0 0
SMALL
GASTEIGER

@<TRIPOS>ATOM
      1 C         140.2949  139.6901  159.8790 C.3     1  UNL1        0.0311
      2 C         141.6372  139.9459  160.4977 C.ar    1  UNL1       -0.0188
      3 C         142.8792  139.4268  159.8361 C.ar    1  UNL1       -0.0030
      4 C         144.2215  139.6826  160.4547 C.ar    1  UNL1        0.0013
      5 C         144.3218  140.4576  161.7351 C.ar    1  UNL1        0.0209
      6 C         143.0797  140.9767  162.3968 C.ar    1  UNL1        0.1021
      7 N         142.8676  141.7664  163.6543 N.ar    1  UNL1       -0.1690
      8 N         141.3942  141.9986  163.8128 N.ar    1  UNL1       -0.2472
      9 C         140.6957  141.3525  162.6533 C.ar    1  UNL1        0.0965
     10 C         141.7374  140.7209  161.7781 C.ar    1  UNL1        0.0342
     11 C         142.7789  138.6518  158.5557 C.ar    1  UNL1        0.0103
     12 C         142.8098  137.1523  158.5823 C.ar    1  UNL1        0.0008
     13 C         142.7095  136.3773  157.3019 C.ar    1  UNL1        0.0039
     14 C         142.5783  137.1017  155.9950 C.ar    1  UNL1        0.0723
     15 C         142.5474  138.6011  155.9684 C.ar    1  UNL1        0.0152
     16 C         142.6477  139.3761  157.2488 C.ar    1  UNL1        0.0576
     17 CL        142.6169  140.8756  157.2222 Cl      1  UNL1       -0.0823
     18 C         142.4780  136.3266  154.7147 C.3     1  UNL1        0.4186
     19 F         142.3777  135.5516  153.4344 F       1  UNL1       -0.1659
     20 F         143.2183  137.4162  153.9971 F       1  UNL1       -0.1659
     21 F         141.7377  135.2371  155.4322 F       1  UNL1       -0.1659
     22 C         140.7350  142.7458  164.9341 C.3     1  UNL1        0.1274
     23 C         140.3412  142.0226  166.1878 C.ar    1  UNL1       -0.0001
     24 C         140.5742  142.6595  167.5258 C.ar    1  UNL1       -0.0023
     25 C         140.1803  141.9362  168.7795 C.ar    1  UNL1        0.0042
     26 C         139.5535  140.5761  168.6953 C.ar    1  UNL1        0.0533
     27 C         139.3205  139.9391  167.3574 C.ar    1  UNL1        0.0042
     28 C         139.7144  140.6624  166.1036 C.ar    1  UNL1       -0.0023
     29 C         139.1597  139.8529  169.9490 C.2     1  UNL1        0.2459
     30 O         140.2130  139.4026  170.9174 O.2     1  UNL1       -0.2701
     31 N         137.7126  139.5800  170.2344 N.am    1  UNL1       -0.3005
     32 H         137.0213  139.8756  169.5989 H       1  UNL1        0.1498
     33 C         137.3189  138.8568  171.4883 C.3     1  UNL1        0.0956
     34 C         135.9110  138.3693  171.6621 C.3     1  UNL1        0.0629
     35 C         135.6354  137.1568  172.5012 C.2     1  UNL1        0.0520
     36 O         136.5728  135.9866  172.4588 O.co2   1  UNL1       -0.5491
     37 O         134.4225  137.1147  173.3827 O.co2   1  UNL1       -0.5491
     38 C         140.4696  144.2161  164.8015 C.3     1  UNL1        0.0289
     39 C         139.0648  144.7117  164.6246 C.3     1  UNL1        0.0023
     40 C         138.4630  144.7858  163.2527 C.3     1  UNL1        0.0001
     41 C         138.2620  145.1331  165.8196 C.3     1  UNL1        0.0001
@<TRIPOS>UNITY_ATOM_ATTR
36 1
charge -1
@<TRIPOS>BOND
     1     1     2    1
     2     2     3   ar
     3     3    11    1
     4    11    12   ar
     5    12    13   ar
     6    13    14   ar
     7    14    18    1
     8    18    19    1
     9    18    20    1
    10    18    21    1
    11    14    15   ar
    12    15    16   ar
    13    16    17    1
    14     3     4   ar
    15     4     5   ar
    16     5     6   ar
    17     6     7   ar
    18     7     8   ar
    19     8    22    1
    20    22    38    1
    21    38    39    1
    22    39    40    1
    23    39    41    1
    24    22    23    1
    25    23    24   ar
    26    24    25   ar
    27    25    26   ar
    28    26    29    1
    29    29    30    2
    30    29    31   am
    31    31    33    1
    32    33    34    1
    33    34    35    1
    34    35    36   ar
    35    35    37   ar
    36    26    27   ar
    37    27    28   ar
    38     8     9   ar
    39     9    10   ar
    40    10     2   ar
    41    16    11   ar
    42    10     6   ar
    43    28    23   ar
    44    31    32    1
@<TRIPOS>MOLECULE
*****
 41 44 0 0 0
SMALL
GASTEIGER

@<TRIPOS>ATOM
      1 C         144.3673  139.6775  160.2989 C.3     1  UNL1        0.0311
      2 C         143.3079  140.7374  160.3645 C.ar    1  UNL1       -0.0188
      3 C         143.1122  141.6747  159.2098 C.ar    1  UNL1       -0.0030
      4 C         142.0528  142.7345  159.2754 C.ar    1  UNL1        0.0013
      5 C         141.1891  142.8572  160.4957 C.ar    1  UNL1        0.0209
      6 C         141.3848  141.9200  161.6503 C.ar    1  UNL1        0.1021
      7 N         140.6907  141.8003  162.9746 N.ar    1  UNL1       -0.1690
      8 N         141.3211  140.6663  163.7275 N.ar    1  UNL1       -0.2472
      9 C         142.4048  140.0853  162.8685 C.ar    1  UNL1        0.0965
     10 C         142.4442  140.8601  161.5847 C.ar    1  UNL1        0.0342
     11 C         143.9759  141.5520  157.9895 C.ar    1  UNL1        0.0103
     12 C         145.2345  142.3602  157.8773 C.ar    1  UNL1        0.0008
     13 C         146.0982  142.2376  156.6571 C.ar    1  UNL1        0.0039
     14 C         145.7034  141.3066  155.5491 C.ar    1  UNL1        0.0723
     15 C         144.4448  140.4984  155.6614 C.ar    1  UNL1        0.0152
     16 C         143.5810  140.6211  156.8817 C.ar    1  UNL1        0.0576
     17 CL        142.3225  139.8128  156.9940 Cl      1  UNL1       -0.0823
     18 C         146.5671  141.1840  154.3289 C.3     1  UNL1        0.4186
     19 F         147.4308  141.0613  153.1087 F       1  UNL1       -0.1659
     20 F         147.4397  142.2941  154.8350 F       1  UNL1       -0.1659
     21 F         145.6945  140.0738  153.8229 F       1  UNL1       -0.1659
     22 C         140.9354  140.1960  165.0987 C.3     1  UNL1        0.1274
     23 C         141.5654  140.8179  166.3096 C.ar    1  UNL1       -0.0001
     24 C         142.5806  141.9105  166.1495 C.ar    1  UNL1       -0.0023
     25 C         143.2105  142.5323  167.3605 C.ar    1  UNL1        0.0042
     26 C         142.8253  142.0615  168.7316 C.ar    1  UNL1        0.0533
     27 C         141.8101  140.9689  168.8918 C.ar    1  UNL1        0.0042
     28 C         141.1802  140.3471  167.6807 C.ar    1  UNL1       -0.0023
     29 C         143.4553  142.6834  169.9426 C.2     1  UNL1        0.2459
     30 O         142.6159  143.0034  171.1439 O.2     1  UNL1       -0.2701
     31 N         144.9245  142.9853  169.9522 N.am    1  UNL1       -0.3005
     32 H         145.4754  142.7753  169.1638 H       1  UNL1        0.1498
     33 C         145.5544  143.6072  171.1633 C.3     1  UNL1        0.0956
     34 C         146.7815  144.4574  171.0173 C.3     1  UNL1        0.0629
     35 C         146.8229  145.8260  171.6299 C.2     1  UNL1        0.0520
     36 O         147.9676  146.2162  172.5172 O.co2   1  UNL1       -0.5491
     37 O         145.7196  146.8044  171.3550 O.co2   1  UNL1       -0.5491
     38 C         139.9198  139.1038  165.2589 C.3     1  UNL1        0.0289
     39 C         139.9465  137.9149  164.3446 C.3     1  UNL1        0.0023
     40 C         141.0840  136.9396  164.4157 C.3     1  UNL1        0.0001
     41 C         138.8359  137.7013  163.3593 C.3     1  UNL1        0.0001
@<TRIPOS>UNITY_ATOM_ATTR
36 1
charge -1
@<TRIPOS>BOND
     1     1     2    1
     2     2     3   ar
     3     3    11    1
     4    11    12   ar
     5    12    13   ar
     6    13    14   ar
     7    14    18    1
     8    18    19    1
     9    18    20    1
    10    18    21    1
    11    14    15   ar
    12    15    16   ar
    13    16    17    1
    14     3     4   ar
    15     4     5   ar
    16     5     6   ar
    17     6     7   ar
    18     7     8   ar
    19     8    22    1
    20    22    38    1
    21    38    39    1
    22    39    40    1
    23    39    41    1
    24    22    23    1
    25    23    24   ar
    26    24    25   ar
    27    25    26   ar
    28    26    29    1
    29    29    30    2
    30    29    31   am
    31    31    33    1
    32    33    34    1
    33    34    35    1
    34    35    36   ar
    35    35    37   ar
    36    26    27   ar
    37    27    28   ar
    38     8     9   ar
    39     9    10   ar
    40    10     2   ar
    41    16    11   ar
    42    10     6   ar
    43    28    23   ar
    44    31    32    1
@<TRIPOS>MOLECULE
*****
 41 44 0 0 0
SMALL
GASTEIGER

@<TRIPOS>ATOM
      1 C         142.7378  137.3269  159.3176 C.3     1  UNL1        0.0311
      2 C         142.6908  138.6066  158.5363 C.ar    1  UNL1       -0.0188
      3 C         142.6224  138.5687  157.0384 C.ar    1  UNL1       -0.0030
      4 C         142.5754  139.8482  156.2571 C.ar    1  UNL1        0.0013
      5 C         142.5968  141.1658  156.9738 C.ar    1  UNL1        0.0209
      6 C         142.6652  141.2037  158.4717 C.ar    1  UNL1        0.1021
      7 N         142.7000  142.3434  159.4463 N.ar    1  UNL1       -0.1690
      8 N         142.7685  141.7682  160.8299 N.ar    1  UNL1       -0.2472
      9 C         142.7760  140.2729  160.7105 C.ar    1  UNL1        0.0965
     10 C         142.7122  139.9241  159.2530 C.ar    1  UNL1        0.0342
     11 C         142.6010  137.2510  156.3217 C.ar    1  UNL1        0.0103
     12 C         143.8872  136.6106  155.8911 C.ar    1  UNL1        0.0008
     13 C         143.8659  135.2930  155.1745 C.ar    1  UNL1        0.0039
     14 C         142.5584  134.6159  154.8884 C.ar    1  UNL1        0.0723
     15 C         141.2721  135.2564  155.3190 C.ar    1  UNL1        0.0152
     16 C         141.2935  136.5740  156.0357 C.ar    1  UNL1        0.0576
     17 CL        140.0073  137.2145  156.4662 Cl      1  UNL1       -0.0823
     18 C         142.5370  133.2984  154.1718 C.3     1  UNL1        0.4186
     19 F         142.5157  131.9808  153.4552 F       1  UNL1       -0.1659
     20 F         141.3848  133.7716  153.3361 F       1  UNL1       -0.1659
     21 F         143.6893  132.8252  155.0075 F       1  UNL1       -0.1659
     22 C         142.8203  142.5507  162.1086 C.3     1  UNL1        0.1274
     23 C         142.3533  141.9259  163.3898 C.ar    1  UNL1       -0.0001
     24 C         140.8857  141.8190  163.6810 C.ar    1  UNL1       -0.0023
     25 C         140.4189  141.1942  164.9622 C.ar    1  UNL1        0.0042
     26 C         141.4195  140.6761  165.9523 C.ar    1  UNL1        0.0533
     27 C         142.8871  140.7829  165.6612 C.ar    1  UNL1        0.0042
     28 C         143.3540  141.4078  164.3799 C.ar    1  UNL1       -0.0023
     29 C         140.9526  140.0512  167.2335 C.2     1  UNL1        0.2459
     30 O         139.6311  139.3433  167.2847 O.2     1  UNL1       -0.2701
     31 N         141.8071  140.1343  168.4635 N.am    1  UNL1       -0.3005
     32 H         142.6744  140.5989  168.4299 H       1  UNL1        0.1498
     33 C         141.3400  139.5093  169.7447 C.3     1  UNL1        0.0956
     34 C         140.3233  140.2120  170.5948 C.3     1  UNL1        0.0629
     35 C         140.3800  141.7024  170.7540 C.2     1  UNL1        0.0520
     36 O         140.2767  142.5899  169.5492 O.co2   1  UNL1       -0.5491
     37 O         140.5401  142.3054  172.1181 O.co2   1  UNL1       -0.5491
     38 C         143.3391  143.9581  162.1060 C.3     1  UNL1        0.0289
     39 C         142.9045  144.9195  163.1723 C.3     1  UNL1        0.0023
     40 C         143.8718  145.3468  164.2362 C.3     1  UNL1        0.0001
     41 C         141.5029  145.4536  163.1748 C.3     1  UNL1        0.0001
@<TRIPOS>UNITY_ATOM_ATTR
36 1
charge -1
@<TRIPOS>BOND
     1     1     2    1
     2     2     3   ar
     3     3    11    1
     4    11    12   ar
     5    12    13   ar
     6    13    14   ar
     7    14    18    1
     8    18    19    1
     9    18    20    1
    10    18    21    1
    11    14    15   ar
    12    15    16   ar
    13    16    17    1
    14     3     4   ar
    15     4     5   ar
    16     5     6   ar
    17     6     7   ar
    18     7     8   ar
    19     8    22    1
    20    22    38    1
    21    38    39    1
    22    39    40    1
    23    39    41    1
    24    22    23    1
    25    23    24   ar
    26    24    25   ar
    27    25    26   ar
    28    26    29    1
    29    29    30    2
    30    29    31   am
    31    31    33    1
    32    33    34    1
    33    34    35    1
    34    35    36   ar
    35    35    37   ar
    36    26    27   ar
    37    27    28   ar
    38     8     9   ar
    39     9    10   ar
    40    10     2   ar
    41    16    11   ar
    42    10     6   ar
    43    28    23   ar
    44    31    32    1
@<TRIPOS>MOLECULE
*****
 41 44 0 0 0
SMALL
GASTEIGER

@<TRIPOS>ATOM
      1 C         141.4044  141.2674  162.8500 C.3     1  UNL1        0.0311
      2 C         141.0254  142.7129  162.7196 C.ar    1  UNL1       -0.0188
      3 C         141.0725  143.6118  163.9195 C.ar    1  UNL1       -0.0030
      4 C         140.6936  145.0572  163.7892 C.ar    1  UNL1        0.0013
      5 C         140.2675  145.6038  162.4589 C.ar    1  UNL1        0.0209
      6 C         140.2204  144.7050  161.2590 C.ar    1  UNL1        0.1021
      7 N         139.8434  144.9583  159.8294 N.ar    1  UNL1       -0.1690
      8 N         139.9894  143.6693  159.0762 N.ar    1  UNL1       -0.2472
      9 C         140.4566  142.6194  160.0403 C.ar    1  UNL1        0.0965
     10 C         140.5993  143.2595  161.3894 C.ar    1  UNL1        0.0342
     11 C         141.4986  143.0651  165.2499 C.ar    1  UNL1        0.0103
     12 C         140.4673  142.5980  166.2338 C.ar    1  UNL1        0.0008
     13 C         140.8934  142.0513  167.5641 C.ar    1  UNL1        0.0039
     14 C         142.3507  141.9717  167.9104 C.ar    1  UNL1        0.0723
     15 C         143.3820  142.4388  166.9264 C.ar    1  UNL1        0.0152
     16 C         142.9559  142.9855  165.5961 C.ar    1  UNL1        0.0576
     17 CL        143.9872  143.4526  164.6121 Cl      1  UNL1       -0.0823
     18 C         142.7767  141.4250  169.2407 C.3     1  UNL1        0.4186
     19 F         143.2027  140.8784  170.5709 F       1  UNL1       -0.1659
     20 F         144.0232  142.2575  169.1836 F       1  UNL1       -0.1659
     21 F         141.5302  140.5926  169.2977 F       1  UNL1       -0.1659
     22 C         139.7163  143.4659  157.6154 C.3     1  UNL1        0.1274
     23 C         138.4852  142.7289  157.1781 C.ar    1  UNL1       -0.0001
     24 C         138.1264  141.4211  157.8194 C.ar    1  UNL1       -0.0023
     25 C         136.8954  140.6842  157.3820 C.ar    1  UNL1        0.0042
     26 C         136.0230  141.2548  156.3035 C.ar    1  UNL1        0.0533
     27 C         136.3817  142.5625  155.6622 C.ar    1  UNL1        0.0042
     28 C         137.6128  143.2995  156.0996 C.ar    1  UNL1       -0.0023
     29 C         134.7920  140.5177  155.8662 C.2     1  UNL1        0.2459
     30 O         134.3559  140.5706  154.4319 O.2     1  UNL1       -0.2701
     31 N         133.9969  139.7278  156.8632 N.am    1  UNL1       -0.3005
     32 H         134.2831  139.6931  157.8045 H       1  UNL1        0.1498
     33 C         132.7658  138.9907  156.4258 C.3     1  UNL1        0.0956
     34 C         131.7288  138.5975  157.4356 C.3     1  UNL1        0.0629
     35 C         130.4390  139.3585  157.5215 C.2     1  UNL1        0.0520
     36 O         129.4944  139.1073  158.6593 O.co2   1  UNL1       -0.5491
     37 O         130.0940  140.3707  156.4696 O.co2   1  UNL1       -0.5491
     38 C         140.6741  143.9996  156.5918 C.3     1  UNL1        0.0289
     39 C         142.0295  144.4843  157.0139 C.3     1  UNL1        0.0023
     40 C         143.1622  143.5116  157.1584 C.3     1  UNL1        0.0001
     41 C         142.2522  145.9414  157.2914 C.3     1  UNL1        0.0001
@<TRIPOS>UNITY_ATOM_ATTR
36 1
charge -1
@<TRIPOS>BOND
     1     1     2    1
     2     2     3   ar
     3     3    11    1
     4    11    12   ar
     5    12    13   ar
     6    13    14   ar
     7    14    18    1
     8    18    19    1
     9    18    20    1
    10    18    21    1
    11    14    15   ar
    12    15    16   ar
    13    16    17    1
    14     3     4   ar
    15     4     5   ar
    16     5     6   ar
    17     6     7   ar
    18     7     8   ar
    19     8    22    1
    20    22    38    1
    21    38    39    1
    22    39    40    1
    23    39    41    1
    24    22    23    1
    25    23    24   ar
    26    24    25   ar
    27    25    26   ar
    28    26    29    1
    29    29    30    2
    30    29    31   am
    31    31    33    1
    32    33    34    1
    33    34    35    1
    34    35    36   ar
    35    35    37   ar
    36    26    27   ar
    37    27    28   ar
    38     8     9   ar
    39     9    10   ar
    40    10     2   ar
    41    16    11   ar
    42    10     6   ar
    43    28    23   ar
    44    31    32    1
