@<TRIPOS>MOLECULE
*****
 35 37 0 0 0
SMALL
GASTEIGER

@<TRIPOS>ATOM
      1 C         139.9000  144.3264  160.4997 C.ar    1  UNL1        0.1629
      2 C         140.3727  144.0078  159.1123 C.ar    1  UNL1        0.1398
      3 C         139.9088  142.7544  158.4312 C.ar    1  UNL1        0.0246
      4 C         138.9722  141.8197  159.1376 C.ar    1  UNL1        0.0386
      5 C         138.4996  142.1383  160.5250 C.ar    1  UNL1        0.1461
      6 C         138.9635  143.3916  161.2061 C.ar    1  UNL1        0.1226
      7 C         138.4908  143.7102  162.5936 C.2     1  UNL1        0.2550
      8 O         137.3149  144.6194  162.7951 O.2     1  UNL1       -0.2697
      9 N         139.1940  143.1195  163.7796 N.am    1  UNL1       -0.2751
     10 C         140.3643  142.2005  163.9695 C.3     1  UNL1        0.0997
     11 C         140.1884  142.2841  165.4568 C.3     1  UNL1        0.0620
     12 C         139.0182  143.2030  165.2669 C.3     1  UNL1        0.0997
     13 C         140.8916  141.6934  166.6428 C.ar    1  UNL1       -0.0192
     14 C         142.2358  142.2164  167.0549 C.ar    1  UNL1       -0.0042
     15 C         142.9390  141.6257  168.2409 C.ar    1  UNL1        0.0035
     16 C         142.2981  140.5120  169.0148 C.ar    1  UNL1        0.0714
     17 C         140.9539  139.9890  168.6027 C.ar    1  UNL1        0.0035
     18 C         140.2507  140.5797  167.4167 C.ar    1  UNL1       -0.0042
     19 C         143.0013  139.9213  170.2008 C.3     1  UNL1        0.4186
     20 F         143.7045  139.3305  171.3868 F       1  UNL1       -0.1659
     21 F         142.1559  138.6874  170.0875 F       1  UNL1       -0.1659
     22 F         143.8467  141.1551  170.3141 F       1  UNL1       -0.1659
     23 S         141.3093  144.9426  158.4059 S.O2    1  UNL1        0.0133
     24 C         142.2459  145.8773  157.6995 C.3     1  UNL1        0.1817
     25 O         142.4787  144.2527  159.0435 O.2     1  UNL1       -0.1685
     26 O         140.1400  145.6325  157.7682 O.2     1  UNL1       -0.1685
     27 C         141.3411  145.4988  162.3160 C.3     1  UNL1        0.2525
     28 O         140.3640  145.5797  161.1808 O.3     1  UNL1       -0.4699
     29 O         137.5629  141.2035  161.2314 O.3     1  UNL1       -0.4701
     30 C         138.0964  139.9725  161.9024 C.3     1  UNL1        0.2600
     31 C         138.6899  138.8674  161.0799 C.3     1  UNL1        0.0566
     32 C         138.0365  139.8467  163.3960 C.3     1  UNL1        0.4340
     33 F         137.9765  139.7209  164.8895 F       1  UNL1       -0.1664
     34 F         139.0820  138.7723  163.3474 F       1  UNL1       -0.1664
     35 F         136.9909  140.9212  163.4445 F       1  UNL1       -0.1664
@<TRIPOS>BOND
     1    27    28    1
     2    28     1    1
     3     1     2   ar
     4     2    23    1
     5    23    24    1
     6    23    25    2
     7    23    26    2
     8     2     3   ar
     9     3     4   ar
    10     4     5   ar
    11     5    29    1
    12    29    30    1
    13    30    31    1
    14    30    32    1
    15    32    33    1
    16    32    34    1
    17    32    35    1
    18     5     6   ar
    19     6     7    1
    20     7     8    2
    21     7     9   am
    22     9    10    1
    23    10    11    1
    24    11    13    1
    25    13    14   ar
    26    14    15   ar
    27    15    16   ar
    28    16    19    1
    29    19    20    1
    30    19    21    1
    31    19    22    1
    32    16    17   ar
    33    17    18   ar
    34    11    12    1
    35     6     1   ar
    36    12     9    1
    37    18    13   ar
@<TRIPOS>MOLECULE
*****
 35 37 0 0 0
SMALL
GASTEIGER

@<TRIPOS>ATOM
      1 C         140.4157  143.1887  159.7095 C.ar    1  UNL1        0.1629
      2 C         140.9723  142.4552  158.5253 C.ar    1  UNL1        0.1398
      3 C         142.4561  142.3030  158.3670 C.ar    1  UNL1        0.0246
      4 C         143.3834  142.8843  159.3927 C.ar    1  UNL1        0.0386
      5 C         142.8268  143.6178  160.5768 C.ar    1  UNL1        0.1461
      6 C         141.3430  143.7700  160.7352 C.ar    1  UNL1        0.1226
      7 C         140.7865  144.5035  161.9194 C.2     1  UNL1        0.2550
      8 O         140.4091  145.9500  161.7961 O.2     1  UNL1       -0.2697
      9 N         140.6074  143.7905  163.2269 N.am    1  UNL1       -0.2751
     10 C         140.8621  142.3963  163.7184 C.3     1  UNL1        0.0997
     11 C         140.3542  142.7821  165.0760 C.3     1  UNL1        0.0620
     12 C         140.0995  144.1762  164.5846 C.3     1  UNL1        0.0997
     13 C         140.1751  142.0691  166.3835 C.ar    1  UNL1       -0.0192
     14 C         140.5994  142.7292  167.6619 C.ar    1  UNL1       -0.0042
     15 C         140.4203  142.0161  168.9694 C.ar    1  UNL1        0.0035
     16 C         139.8169  140.6431  168.9985 C.ar    1  UNL1        0.0714
     17 C         139.3927  139.9832  167.7201 C.ar    1  UNL1        0.0035
     18 C         139.5717  140.6962  166.4126 C.ar    1  UNL1       -0.0042
     19 C         139.6379  139.9301  170.3060 C.3     1  UNL1        0.4186
     20 F         139.4588  139.2171  171.6135 F       1  UNL1       -0.1659
     21 F         141.0807  139.5207  170.2803 F       1  UNL1       -0.1659
     22 F         138.1950  140.3395  170.3316 F       1  UNL1       -0.1659
     23 S         140.0450  141.8739  157.4995 S.O2    1  UNL1        0.0133
     24 C         139.1177  141.2926  156.4737 C.3     1  UNL1        0.1817
     25 O         140.0949  143.1583  156.7265 O.2     1  UNL1       -0.1685
     26 O         139.9950  140.5894  158.2725 O.2     1  UNL1       -0.1685
     27 C         138.1783  142.4273  160.7883 C.3     1  UNL1        0.2525
     28 O         138.9319  143.3409  159.8679 O.3     1  UNL1       -0.4699
     29 O         143.7541  144.1991  161.6026 O.3     1  UNL1       -0.4701
     30 C         144.3835  143.3103  162.6341 C.3     1  UNL1        0.2600
     31 C         145.0253  142.0192  162.2206 C.3     1  UNL1        0.0566
     32 C         144.3710  143.7127  164.0792 C.3     1  UNL1        0.4340
     33 F         144.3585  144.1150  165.5241 F       1  UNL1       -0.1664
     34 F         145.1821  142.4990  164.4241 F       1  UNL1       -0.1664
     35 F         143.5598  144.9263  163.7342 F       1  UNL1       -0.1664
@<TRIPOS>BOND
     1    27    28    1
     2    28     1    1
     3     1     2   ar
     4     2    23    1
     5    23    24    1
     6    23    25    2
     7    23    26    2
     8     2     3   ar
     9     3     4   ar
    10     4     5   ar
    11     5    29    1
    12    29    30    1
    13    30    31    1
    14    30    32    1
    15    32    33    1
    16    32    34    1
    17    32    35    1
    18     5     6   ar
    19     6     7    1
    20     7     8    2
    21     7     9   am
    22     9    10    1
    23    10    11    1
    24    11    13    1
    25    13    14   ar
    26    14    15   ar
    27    15    16   ar
    28    16    19    1
    29    19    20    1
    30    19    21    1
    31    19    22    1
    32    16    17   ar
    33    17    18   ar
    34    11    12    1
    35     6     1   ar
    36    12     9    1
    37    18    13   ar
@<TRIPOS>MOLECULE
*****
 35 37 0 0 0
SMALL
GASTEIGER

@<TRIPOS>ATOM
      1 C         141.4490  140.9201  159.1787 C.ar    1  UNL1        0.1629
      2 C         142.6719  140.5856  158.3772 C.ar    1  UNL1        0.1398
      3 C         143.8396  141.5269  158.3624 C.ar    1  UNL1        0.0246
      4 C         143.7844  142.8028  159.1492 C.ar    1  UNL1        0.0386
      5 C         142.5615  143.1373  159.9508 C.ar    1  UNL1        0.1461
      6 C         141.3938  142.1959  159.9655 C.ar    1  UNL1        0.1226
      7 C         140.1708  142.5304  160.7671 C.2     1  UNL1        0.2550
      8 O         139.0324  143.2674  160.1261 O.2     1  UNL1       -0.2697
      9 N         140.0863  142.1280  162.2096 N.am    1  UNL1       -0.2751
     10 C         140.9906  141.4060  163.1641 C.3     1  UNL1        0.0997
     11 C         139.9668  141.5589  164.2496 C.3     1  UNL1        0.0620
     12 C         139.0626  142.2808  163.2952 C.3     1  UNL1        0.0997
     13 C         139.8824  141.1565  165.6922 C.ar    1  UNL1       -0.0192
     14 C         140.5722  141.9771  166.7414 C.ar    1  UNL1       -0.0042
     15 C         140.4877  141.5747  168.1839 C.ar    1  UNL1        0.0035
     16 C         139.7134  140.3516  168.5773 C.ar    1  UNL1        0.0714
     17 C         139.0236  139.5310  167.5281 C.ar    1  UNL1        0.0035
     18 C         139.1081  139.9335  166.0855 C.ar    1  UNL1       -0.0042
     19 C         139.6289  139.9492  170.0198 C.3     1  UNL1        0.4186
     20 F         139.5445  139.5467  171.4623 F       1  UNL1       -0.1659
     21 F         138.1846  140.3532  170.0479 F       1  UNL1       -0.1659
     22 F         141.0732  139.5451  169.9917 F       1  UNL1       -0.1659
     23 S         142.7272  139.3097  157.5903 S.O2    1  UNL1        0.0133
     24 C         142.7824  138.0338  156.8034 C.3     1  UNL1        0.1817
     25 O         142.0802  139.9997  156.4261 O.2     1  UNL1       -0.1685
     26 O         143.3741  138.6197  158.7544 O.2     1  UNL1       -0.1685
     27 C         140.1716  138.9363  160.2664 C.3     1  UNL1        0.2525
     28 O         140.2812  139.9787  159.1934 O.3     1  UNL1       -0.4699
     29 O         142.5063  144.4132  160.7376 O.3     1  UNL1       -0.4701
     30 C         142.9143  144.4224  162.1810 C.3     1  UNL1        0.2600
     31 C         144.3093  144.0302  162.5686 C.3     1  UNL1        0.0566
     32 C         141.9274  144.8239  163.2369 C.3     1  UNL1        0.4340
     33 F         140.9406  145.2254  164.2928 F       1  UNL1       -0.1664
     34 F         142.7968  144.1987  164.2872 F       1  UNL1       -0.1664
     35 F         141.0580  145.4491  162.1866 F       1  UNL1       -0.1664
@<TRIPOS>BOND
     1    27    28    1
     2    28     1    1
     3     1     2   ar
     4     2    23    1
     5    23    24    1
     6    23    25    2
     7    23    26    2
     8     2     3   ar
     9     3     4   ar
    10     4     5   ar
    11     5    29    1
    12    29    30    1
    13    30    31    1
    14    30    32    1
    15    32    33    1
    16    32    34    1
    17    32    35    1
    18     5     6   ar
    19     6     7    1
    20     7     8    2
    21     7     9   am
    22     9    10    1
    23    10    11    1
    24    11    13    1
    25    13    14   ar
    26    14    15   ar
    27    15    16   ar
    28    16    19    1
    29    19    20    1
    30    19    21    1
    31    19    22    1
    32    16    17   ar
    33    17    18   ar
    34    11    12    1
    35     6     1   ar
    36    12     9    1
    37    18    13   ar
@<TRIPOS>MOLECULE
*****
 35 37 0 0 0
SMALL
GASTEIGER

@<TRIPOS>ATOM
      1 C         142.0754  142.9319  159.7036 C.ar    1  UNL1        0.1629
      2 C         142.0476  141.9539  158.5667 C.ar    1  UNL1        0.1398
      3 C         140.7506  141.3278  158.1475 C.ar    1  UNL1        0.0246
      4 C         139.4814  141.6798  158.8651 C.ar    1  UNL1        0.0386
      5 C         139.5091  142.6578  160.0020 C.ar    1  UNL1        0.1461
      6 C         140.8061  143.2839  160.4213 C.ar    1  UNL1        0.1226
      7 C         140.8338  144.2620  161.5582 C.2     1  UNL1        0.2550
      8 O         140.6604  145.7277  161.2910 O.2     1  UNL1       -0.2697
      9 N         141.0349  143.7742  162.9624 N.am    1  UNL1       -0.2751
     10 C         141.2366  142.4316  163.6002 C.3     1  UNL1        0.0997
     11 C         141.3193  143.0845  164.9482 C.3     1  UNL1        0.0620
     12 C         141.1177  144.4270  164.3104 C.3     1  UNL1        0.0997
     13 C         141.5205  142.5967  166.3523 C.ar    1  UNL1       -0.0192
     14 C         142.9083  142.3943  166.8844 C.ar    1  UNL1       -0.0042
     15 C         143.1094  141.9066  168.2886 C.ar    1  UNL1        0.0035
     16 C         141.9227  141.6212  169.1606 C.ar    1  UNL1        0.0714
     17 C         140.5349  141.8236  168.6285 C.ar    1  UNL1        0.0035
     18 C         140.3338  142.3114  167.2243 C.ar    1  UNL1       -0.0042
     19 C         142.1238  141.1335  170.5648 C.3     1  UNL1        0.4186
     20 F         142.3249  140.6457  171.9690 F       1  UNL1       -0.1659
     21 F         140.7203  141.5380  170.9063 F       1  UNL1       -0.1659
     22 F         143.5272  140.7289  170.2233 F       1  UNL1       -0.1659
     23 S         143.3170  141.6018  157.8490 S.O2    1  UNL1        0.0133
     24 C         144.5862  141.2498  157.1314 C.3     1  UNL1        0.1817
     25 O         143.1155  142.7642  156.9227 O.2     1  UNL1       -0.1685
     26 O         143.5184  140.4394  158.7754 O.2     1  UNL1       -0.1685
     27 C         144.1876  142.9338  161.2164 C.3     1  UNL1        0.2525
     28 O         143.3724  143.5580  160.1229 O.3     1  UNL1       -0.4699
     29 O         138.2398  143.0099  160.7197 O.3     1  UNL1       -0.4701
     30 C         137.8494  142.2653  161.9619 C.3     1  UNL1        0.2600
     31 C         137.6309  140.7822  161.9099 C.3     1  UNL1        0.0566
     32 C         137.6774  143.0038  163.2562 C.3     1  UNL1        0.4340
     33 F         137.5055  143.7423  164.5504 F       1  UNL1       -0.1664
     34 F         137.6546  141.6999  163.9972 F       1  UNL1       -0.1664
     35 F         137.7003  144.3078  162.5152 F       1  UNL1       -0.1664
@<TRIPOS>BOND
     1    27    28    1
     2    28     1    1
     3     1     2   ar
     4     2    23    1
     5    23    24    1
     6    23    25    2
     7    23    26    2
     8     2     3   ar
     9     3     4   ar
    10     4     5   ar
    11     5    29    1
    12    29    30    1
    13    30    31    1
    14    30    32    1
    15    32    33    1
    16    32    34    1
    17    32    35    1
    18     5     6   ar
    19     6     7    1
    20     7     8    2
    21     7     9   am
    22     9    10    1
    23    10    11    1
    24    11    13    1
    25    13    14   ar
    26    14    15   ar
    27    15    16   ar
    28    16    19    1
    29    19    20    1
    30    19    21    1
    31    19    22    1
    32    16    17   ar
    33    17    18   ar
    34    11    12    1
    35     6     1   ar
    36    12     9    1
    37    18    13   ar
@<TRIPOS>MOLECULE
*****
 35 37 0 0 0
SMALL
GASTEIGER

@<TRIPOS>ATOM
      1 C         143.5217  140.1731  159.8959 C.ar    1  UNL1        0.1629
      2 C         142.6389  139.9569  158.7026 C.ar    1  UNL1        0.1398
      3 C         141.8306  141.0941  158.1518 C.ar    1  UNL1        0.0246
      4 C         141.9051  142.4475  158.7942 C.ar    1  UNL1        0.0386
      5 C         142.7879  142.6637  159.9874 C.ar    1  UNL1        0.1461
      6 C         143.5962  141.5265  160.5383 C.ar    1  UNL1        0.1226
      7 C         144.4790  141.7428  161.7316 C.2     1  UNL1        0.2550
      8 O         145.9134  142.1381  161.5416 O.2     1  UNL1       -0.2697
      9 N         143.9273  141.5637  163.1149 N.am    1  UNL1       -0.2751
     10 C         142.5912  141.1875  163.6835 C.3     1  UNL1        0.0997
     11 C         143.1471  141.3105  165.0712 C.3     1  UNL1        0.0620
     12 C         144.4831  141.6868  164.5027 C.3     1  UNL1        0.0997
     13 C         142.5954  141.1315  166.4546 C.ar    1  UNL1       -0.0192
     14 C         141.8758  142.2628  167.1273 C.ar    1  UNL1       -0.0042
     15 C         141.3241  142.0837  168.5106 C.ar    1  UNL1        0.0035
     16 C         141.4921  140.7734  169.2212 C.ar    1  UNL1        0.0714
     17 C         142.2116  139.6422  168.5485 C.ar    1  UNL1        0.0035
     18 C         142.7633  139.8212  167.1652 C.ar    1  UNL1       -0.0042
     19 C         140.9404  140.5943  170.6045 C.3     1  UNL1        0.4186
     20 F         140.3887  140.4153  171.9879 F       1  UNL1       -0.1659
     21 F         141.1093  139.1091  170.4797 F       1  UNL1       -0.1659
     22 F         140.7714  142.0795  170.7294 F       1  UNL1       -0.1659
     23 S         142.5644  138.6035  158.0602 S.O2    1  UNL1        0.0133
     24 C         142.4900  137.2501  157.4177 C.3     1  UNL1        0.1817
     25 O         143.7515  138.9426  157.2082 O.2     1  UNL1       -0.1685
     26 O         141.3774  138.2644  158.9121 O.2     1  UNL1       -0.1685
     27 C         143.7745  138.1870  161.5516 C.3     1  UNL1        0.2525
     28 O         144.3300  139.0360  160.4468 O.3     1  UNL1       -0.4699
     29 O         142.8624  144.0172  160.6299 O.3     1  UNL1       -0.4701
     30 C         142.0090  144.3288  161.8235 C.3     1  UNL1        0.2600
     31 C         140.5242  144.1264  161.7573 C.3     1  UNL1        0.0566
     32 C         142.6405  144.8429  163.0833 C.3     1  UNL1        0.4340
     33 F         143.2719  145.3569  164.3430 F       1  UNL1       -0.1664
     34 F         143.9830  144.8327  162.4145 F       1  UNL1       -0.1664
     35 F         141.2979  144.8531  163.7521 F       1  UNL1       -0.1664
@<TRIPOS>BOND
     1    27    28    1
     2    28     1    1
     3     1     2   ar
     4     2    23    1
     5    23    24    1
     6    23    25    2
     7    23    26    2
     8     2     3   ar
     9     3     4   ar
    10     4     5   ar
    11     5    29    1
    12    29    30    1
    13    30    31    1
    14    30    32    1
    15    32    33    1
    16    32    34    1
    17    32    35    1
    18     5     6   ar
    19     6     7    1
    20     7     8    2
    21     7     9   am
    22     9    10    1
    23    10    11    1
    24    11    13    1
    25    13    14   ar
    26    14    15   ar
    27    15    16   ar
    28    16    19    1
    29    19    20    1
    30    19    21    1
    31    19    22    1
    32    16    17   ar
    33    17    18   ar
    34    11    12    1
    35     6     1   ar
    36    12     9    1
    37    18    13   ar
@<TRIPOS>MOLECULE
*****
 35 37 0 0 0
SMALL
GASTEIGER

@<TRIPOS>ATOM
      1 C         141.4109  142.1637  159.5015 C.ar    1  UNL1        0.1629
      2 C         140.2304  142.7063  158.7518 C.ar    1  UNL1        0.1398
      3 C         139.0453  141.8276  158.4812 C.ar    1  UNL1        0.0246
      4 C         139.0405  140.4062  158.9603 C.ar    1  UNL1        0.0386
      5 C         140.2209  139.8636  159.7100 C.ar    1  UNL1        0.1461
      6 C         141.4061  140.7423  159.9806 C.ar    1  UNL1        0.1226
      7 C         142.5866  140.1995  160.7303 C.2     1  UNL1        0.2550
      8 O         143.7434  139.6078  159.9810 O.2     1  UNL1       -0.2697
      9 N         142.6101  140.2486  162.2293 N.am    1  UNL1       -0.2751
     10 C         141.6725  140.7465  163.2892 C.3     1  UNL1        0.0997
     11 C         142.6434  140.3180  164.3492 C.3     1  UNL1        0.0620
     12 C         143.5809  139.8201  163.2895 C.3     1  UNL1        0.0997
     13 C         142.6669  140.3670  165.8482 C.ar    1  UNL1       -0.0192
     14 C         142.6102  139.0950  166.6413 C.ar    1  UNL1       -0.0042
     15 C         142.6337  139.1441  168.1403 C.ar    1  UNL1        0.0035
     16 C         142.7140  140.4651  168.8463 C.ar    1  UNL1        0.0714
     17 C         142.7708  141.7371  168.0533 C.ar    1  UNL1        0.0035
     18 C         142.7472  141.6880  166.5542 C.ar    1  UNL1       -0.0042
     19 C         142.7375  140.5142  170.3453 C.3     1  UNL1        0.4186
     20 F         142.7611  140.5633  171.8443 F       1  UNL1       -0.1659
     21 F         143.6750  141.6840  170.2923 F       1  UNL1       -0.1659
     22 F         141.8001  139.3444  170.3983 F       1  UNL1       -0.1659
     23 S         140.2352  144.1278  158.2727 S.O2    1  UNL1        0.0133
     24 C         140.2399  145.5492  157.7935 C.3     1  UNL1        0.1817
     25 O         140.8432  143.6880  156.9739 O.2     1  UNL1       -0.1685
     26 O         139.6271  144.5676  159.5714 O.2     1  UNL1       -0.1685
     27 C         142.7168  143.7551  161.0864 C.3     1  UNL1        0.2525
     28 O         142.5960  143.0424  159.7721 O.3     1  UNL1       -0.4699
     29 O         140.2162  138.4421  160.1891 O.3     1  UNL1       -0.4701
     30 C         139.5608  138.0920  161.4922 C.3     1  UNL1        0.2600
     31 C         138.0877  138.3093  161.6729 C.3     1  UNL1        0.0566
     32 C         140.3785  137.5247  162.6145 C.3     1  UNL1        0.4340
     33 F         141.1962  136.9573  163.7367 F       1  UNL1       -0.1664
     34 F         141.5479  137.3756  161.6870 F       1  UNL1       -0.1664
     35 F         139.2091  137.6737  163.5419 F       1  UNL1       -0.1664
@<TRIPOS>BOND
     1    27    28    1
     2    28     1    1
     3     1     2   ar
     4     2    23    1
     5    23    24    1
     6    23    25    2
     7    23    26    2
     8     2     3   ar
     9     3     4   ar
    10     4     5   ar
    11     5    29    1
    12    29    30    1
    13    30    31    1
    14    30    32    1
    15    32    33    1
    16    32    34    1
    17    32    35    1
    18     5     6   ar
    19     6     7    1
    20     7     8    2
    21     7     9   am
    22     9    10    1
    23    10    11    1
    24    11    13    1
    25    13    14   ar
    26    14    15   ar
    27    15    16   ar
    28    16    19    1
    29    19    20    1
    30    19    21    1
    31    19    22    1
    32    16    17   ar
    33    17    18   ar
    34    11    12    1
    35     6     1   ar
    36    12     9    1
    37    18    13   ar
@<TRIPOS>MOLECULE
*****
 35 37 0 0 0
SMALL
GASTEIGER

@<TRIPOS>ATOM
      1 C         140.2093  139.8999  159.9162 C.ar    1  UNL1        0.1629
      2 C         141.1814  140.1295  158.7973 C.ar    1  UNL1        0.1398
      3 C         141.4031  141.5157  158.2688 C.ar    1  UNL1        0.0246
      4 C         140.6526  142.6724  158.8594 C.ar    1  UNL1        0.0386
      5 C         139.6804  142.4428  159.9783 C.ar    1  UNL1        0.1461
      6 C         139.4588  141.0566  160.5068 C.ar    1  UNL1        0.1226
      7 C         138.4865  140.8270  161.6258 C.2     1  UNL1        0.2550
      8 O         137.0685  140.4450  161.3208 O.2     1  UNL1       -0.2697
      9 N         138.9324  140.9796  163.0498 N.am    1  UNL1       -0.2751
     10 C         140.2236  141.3372  163.7245 C.3     1  UNL1        0.0997
     11 C         139.5630  141.1954  165.0637 C.3     1  UNL1        0.0620
     12 C         138.2720  140.8378  164.3891 C.3     1  UNL1        0.0997
     13 C         140.0090  141.3480  166.4878 C.ar    1  UNL1       -0.0192
     14 C         140.3220  142.7096  167.0338 C.ar    1  UNL1       -0.0042
     15 C         140.7679  142.8621  168.4579 C.ar    1  UNL1        0.0035
     16 C         140.9008  141.6531  169.3358 C.ar    1  UNL1        0.0714
     17 C         140.5877  140.2916  168.7897 C.ar    1  UNL1        0.0035
     18 C         140.1418  140.1390  167.3657 C.ar    1  UNL1       -0.0042
     19 C         141.3467  141.8057  170.7599 C.3     1  UNL1        0.4186
     20 F         141.7926  141.9583  172.1839 F       1  UNL1       -0.1659
     21 F         140.1883  142.7212  171.0245 F       1  UNL1       -0.1659
     22 F         142.5051  140.8902  170.4952 F       1  UNL1       -0.1659
     23 S         141.9320  138.9728  158.2066 S.O2    1  UNL1        0.0133
     24 C         142.6826  137.8161  157.6161 C.3     1  UNL1        0.1817
     25 O         143.0460  139.1956  159.1861 O.2     1  UNL1       -0.1685
     26 O         140.8181  138.7499  157.2272 O.2     1  UNL1       -0.1685
     27 C         140.7410  138.0423  161.6530 C.3     1  UNL1        0.2525
     28 O         139.9876  138.5137  160.4447 O.3     1  UNL1       -0.4699
     29 O         138.9298  143.5995  160.5689 O.3     1  UNL1       -0.4701
     30 C         139.5232  144.3761  161.7069 C.3     1  UNL1        0.2600
     31 C         140.8540  145.0483  161.5428 C.3     1  UNL1        0.0566
     32 C         138.7856  144.4805  163.0089 C.3     1  UNL1        0.4340
     33 F         138.0480  144.5848  164.3108 F       1  UNL1       -0.1664
     34 F         137.5647  143.8940  162.3642 F       1  UNL1       -0.1664
     35 F         140.0064  145.0670  163.6535 F       1  UNL1       -0.1664
@<TRIPOS>BOND
     1    27    28    1
     2    28     1    1
     3     1     2   ar
     4     2    23    1
     5    23    24    1
     6    23    25    2
     7    23    26    2
     8     2     3   ar
     9     3     4   ar
    10     4     5   ar
    11     5    29    1
    12    29    30    1
    13    30    31    1
    14    30    32    1
    15    32    33    1
    16    32    34    1
    17    32    35    1
    18     5     6   ar
    19     6     7    1
    20     7     8    2
    21     7     9   am
    22     9    10    1
    23    10    11    1
    24    11    13    1
    25    13    14   ar
    26    14    15   ar
    27    15    16   ar
    28    16    19    1
    29    19    20    1
    30    19    21    1
    31    19    22    1
    32    16    17   ar
    33    17    18   ar
    34    11    12    1
    35     6     1   ar
    36    12     9    1
    37    18    13   ar
@<TRIPOS>MOLECULE
*****
 35 37 0 0 0
SMALL
GASTEIGER

@<TRIPOS>ATOM
      1 C         141.3758  141.2844  159.0436 C.ar    1  UNL1        0.1629
      2 C         141.5912  140.0638  158.1988 C.ar    1  UNL1        0.1398
      3 C         140.5442  138.9908  158.1505 C.ar    1  UNL1        0.0246
      4 C         139.2818  139.1383  158.9471 C.ar    1  UNL1        0.0386
      5 C         139.0664  140.3588  159.7919 C.ar    1  UNL1        0.1461
      6 C         140.1134  141.4319  159.8402 C.ar    1  UNL1        0.1226
      7 C         139.8980  142.6525  160.6851 C.2     1  UNL1        0.2550
      8 O         139.2691  143.8765  160.0881 O.2     1  UNL1       -0.2697
      9 N         140.3114  142.6491  162.1270 N.am    1  UNL1       -0.2751
     10 C         140.9484  141.6487  163.0454 C.3     1  UNL1        0.0997
     11 C         140.8960  142.6443  164.1661 C.3     1  UNL1        0.0620
     12 C         140.2591  143.6446  163.2478 C.3     1  UNL1        0.0997
     13 C         141.3095  142.6409  165.6080 C.ar    1  UNL1       -0.0192
     14 C         140.2825  142.8400  166.6831 C.ar    1  UNL1       -0.0042
     15 C         140.6960  142.8366  168.1250 C.ar    1  UNL1        0.0035
     16 C         142.1363  142.6340  168.4918 C.ar    1  UNL1        0.0714
     17 C         143.1631  142.4349  167.4167 C.ar    1  UNL1        0.0035
     18 C         142.7497  142.4383  165.9748 C.ar    1  UNL1       -0.0042
     19 C         142.5497  142.6306  169.9337 C.3     1  UNL1        0.4186
     20 F         142.9632  142.6272  171.3756 F       1  UNL1       -0.1659
     21 F         141.6377  143.7918  170.1979 F       1  UNL1       -0.1659
     22 F         143.4617  141.4694  169.6695 F       1  UNL1       -0.1659
     23 S         142.8536  139.9163  157.4021 S.O2    1  UNL1        0.0133
     24 C         144.1159  139.7688  156.6055 C.3     1  UNL1        0.1817
     25 O         142.2208  140.6577  156.2620 O.2     1  UNL1       -0.1685
     26 O         143.4865  139.1749  158.5422 O.2     1  UNL1       -0.1685
     27 C         143.4693  142.3365  160.1662 C.3     1  UNL1        0.2525
     28 O         142.4228  142.3575  159.0918 O.3     1  UNL1       -0.4699
     29 O         137.8040  140.5064  160.5886 O.3     1  UNL1       -0.4701
     30 C         137.7747  140.0944  162.0306 C.3     1  UNL1        0.2600
     31 C         137.3887  141.0873  163.0866 C.3     1  UNL1        0.0566
     32 C         138.1314  138.6895  162.4167 C.3     1  UNL1        0.4340
     33 F         138.4882  137.2847  162.8027 F       1  UNL1       -0.1664
     34 F         139.1144  139.2150  163.4205 F       1  UNL1       -0.1664
     35 F         137.1485  138.1640  161.4129 F       1  UNL1       -0.1664
@<TRIPOS>BOND
     1    27    28    1
     2    28     1    1
     3     1     2   ar
     4     2    23    1
     5    23    24    1
     6    23    25    2
     7    23    26    2
     8     2     3   ar
     9     3     4   ar
    10     4     5   ar
    11     5    29    1
    12    29    30    1
    13    30    31    1
    14    30    32    1
    15    32    33    1
    16    32    34    1
    17    32    35    1
    18     5     6   ar
    19     6     7    1
    20     7     8    2
    21     7     9   am
    22     9    10    1
    23    10    11    1
    24    11    13    1
    25    13    14   ar
    26    14    15   ar
    27    15    16   ar
    28    16    19    1
    29    19    20    1
    30    19    21    1
    31    19    22    1
    32    16    17   ar
    33    17    18   ar
    34    11    12    1
    35     6     1   ar
    36    12     9    1
    37    18    13   ar
@<TRIPOS>MOLECULE
*****
 35 37 0 0 0
SMALL
GASTEIGER

@<TRIPOS>ATOM
      1 C         140.1549  142.3561  162.7556 C.ar    1  UNL1        0.1629
      2 C         139.2221  143.5085  162.9833 C.ar    1  UNL1        0.1398
      3 C         137.9423  143.2999  163.7373 C.ar    1  UNL1        0.0246
      4 C         137.5953  141.9389  164.2638 C.ar    1  UNL1        0.0386
      5 C         138.5281  140.7865  164.0362 C.ar    1  UNL1        0.1461
      6 C         139.8078  140.9951  163.2821 C.ar    1  UNL1        0.1226
      7 C         140.7406  139.8425  163.0545 C.2     1  UNL1        0.2550
      8 O         141.4989  139.2527  164.2064 O.2     1  UNL1       -0.2697
      9 N         140.9150  139.2800  161.6750 N.am    1  UNL1       -0.2751
     10 C         140.3479  139.5935  160.3221 C.3     1  UNL1        0.0997
     11 C         141.1616  138.4844  159.7241 C.3     1  UNL1        0.0620
     12 C         141.7286  138.1709  161.0768 C.3     1  UNL1        0.0997
     13 C         141.3360  137.9218  158.3445 C.ar    1  UNL1       -0.0192
     14 C         142.7072  137.5792  157.8421 C.ar    1  UNL1       -0.0042
     15 C         142.8816  137.0166  156.4626 C.ar    1  UNL1        0.0035
     16 C         141.6847  136.7967  155.5855 C.ar    1  UNL1        0.0714
     17 C         140.3136  137.1394  156.0879 C.ar    1  UNL1        0.0035
     18 C         140.1392  137.7019  157.4674 C.ar    1  UNL1       -0.0042
     19 C         141.8591  136.2341  154.2059 C.3     1  UNL1        0.4186
     20 F         142.0335  135.6716  152.8264 F       1  UNL1       -0.1659
     21 F         140.4179  136.5222  153.9063 F       1  UNL1       -0.1659
     22 F         143.3004  135.9461  154.5056 F       1  UNL1       -0.1659
     23 S         139.5692  144.8696  162.4568 S.O2    1  UNL1        0.0133
     24 C         139.9161  146.2306  161.9303 C.3     1  UNL1        0.1817
     25 O         138.9125  144.5319  161.1512 O.2     1  UNL1       -0.1685
     26 O         140.2259  145.2072  163.7624 O.2     1  UNL1       -0.1685
     27 C         142.7166  142.7891  162.7474 C.3     1  UNL1        0.2525
     28 O         141.4347  142.5646  162.0016 O.3     1  UNL1       -0.4699
     29 O         138.1810  139.4254  164.5627 O.3     1  UNL1       -0.4701
     30 C         138.3777  139.1109  166.0161 C.3     1  UNL1        0.2600
     31 C         139.0963  140.0837  166.9034 C.3     1  UNL1        0.0566
     32 C         137.8556  137.8236  166.5822 C.3     1  UNL1        0.4340
     33 F         137.3336  136.5365  167.1484 F       1  UNL1       -0.1664
     34 F         137.0128  138.5935  167.5554 F       1  UNL1       -0.1664
     35 F         138.6984  137.0538  165.6091 F       1  UNL1       -0.1664
@<TRIPOS>BOND
     1    27    28    1
     2    28     1    1
     3     1     2   ar
     4     2    23    1
     5    23    24    1
     6    23    25    2
     7    23    26    2
     8     2     3   ar
     9     3     4   ar
    10     4     5   ar
    11     5    29    1
    12    29    30    1
    13    30    31    1
    14    30    32    1
    15    32    33    1
    16    32    34    1
    17    32    35    1
    18     5     6   ar
    19     6     7    1
    20     7     8    2
    21     7     9   am
    22     9    10    1
    23    10    11    1
    24    11    13    1
    25    13    14   ar
    26    14    15   ar
    27    15    16   ar
    28    16    19    1
    29    19    20    1
    30    19    21    1
    31    19    22    1
    32    16    17   ar
    33    17    18   ar
    34    11    12    1
    35     6     1   ar
    36    12     9    1
    37    18    13   ar
