@<TRIPOS>MOLECULE
*****
 37 41 0 0 0
SMALL
GASTEIGER

@<TRIPOS>ATOM
      1 N         144.3789  141.6449  163.5914 N.3     1  UNL1       -0.2684
      2 C         143.6087  141.3245  162.3447 C.3     1  UNL1        0.1035
      3 C         142.5774  142.2857  161.8325 C.3     1  UNL1        0.1470
      4 C         141.5459  143.2470  161.3203 C.3     1  UNL1        0.1035
      5 N         141.2847  144.5285  162.0548 N.3     1  UNL1       -0.2673
      6 C         142.0549  144.8487  163.3016 C.3     1  UNL1        0.1035
      7 C         143.0863  143.8875  163.8137 C.3     1  UNL1        0.1470
      8 C         144.1176  142.9264  164.3259 C.3     1  UNL1        0.1035
      9 O         142.3161  143.5672  162.5671 O.3     1  UNL1       -0.3530
     10 C         145.4103  140.6836  164.1036 C.3     1  UNL1        0.0761
     11 C         145.0115  139.2892  164.4862 C.3     1  UNL1        0.0646
     12 C         143.8959  139.0700  165.4647 C.3     1  UNL1        0.2068
     13 O         142.5877  139.7809  165.2823 O.3     1  UNL1       -0.4754
     14 C         140.6374  141.8363  168.7782 C.ar    1  UNL1        0.0686
     15 C         141.3229  140.5161  168.9714 C.ar    1  UNL1        0.0134
     16 C         141.9730  139.8310  167.8061 C.ar    1  UNL1        0.0376
     17 C         141.9377  140.4660  166.4476 C.ar    1  UNL1        0.1386
     18 C         141.2522  141.7861  166.2544 C.ar    1  UNL1        0.0376
     19 C         140.6021  142.4713  167.4198 C.ar    1  UNL1        0.0134
     20 N         139.3372  143.2065  171.1089 N.1     1  UNL1       -0.1908
     21 C         139.9873  142.5214  169.9435 C.1     1  UNL1        0.1004
     22 C         140.2533  145.4896  161.5427 C.3     1  UNL1        0.0913
     23 C         139.0512  145.8157  162.3787 C.3     1  UNL1        0.1087
     24 N         137.8785  144.8808  162.4028 N.3     1  UNL1       -0.1780
     25 H         137.4706  144.8959  161.4680 H       1  UNL1        0.1488
     26 S         138.0763  143.4389  162.7657 S.O2    1  UNL1        0.0603
     27 O         138.4778  143.8431  164.1532 O.2     1  UNL1       -0.1530
     28 O         137.6748  143.0346  161.3781 O.2     1  UNL1       -0.1530
     29 C         138.2741  141.9968  163.1285 C.ar    1  UNL1        0.1218
     30 C         138.6944  141.0104  162.0796 C.ar    1  UNL1        0.0230
     31 C         138.8922  139.5685  162.4424 C.ar    1  UNL1        0.0379
     32 C         138.6696  139.1130  163.8541 C.ar    1  UNL1        0.1347
     33 C         138.2492  140.0994  164.9030 C.ar    1  UNL1        0.0168
     34 C         138.0515  141.5414  164.5402 C.ar    1  UNL1        0.0187
     35 C         138.1057  139.3623  166.2015 C.3     1  UNL1        0.0768
     36 C         138.4373  137.9203  165.9551 C.3     1  UNL1        0.2102
     37 O         138.7859  137.7663  164.5043 O.3     1  UNL1       -0.4754
@<TRIPOS>BOND
     1    20    21    3
     2    21    14    1
     3    14    15   ar
     4    15    16   ar
     5    16    17   ar
     6    17    13    1
     7    13    12    1
     8    12    11    1
     9    11    10    1
    10    10     1    1
    11     1     2    1
    12     2     3    1
    13     3     4    1
    14     4     5    1
    15     5    22    1
    16    22    23    1
    17    23    24    1
    18    24    26    1
    19    26    27    2
    20    26    28    2
    21    26    29    1
    22    29    30   ar
    23    30    31   ar
    24    31    32   ar
    25    32    33   ar
    26    33    34   ar
    27    33    35    1
    28    35    36    1
    29    36    37    1
    30     5     6    1
    31     6     7    1
    32     7     8    1
    33     7     9    1
    34    17    18   ar
    35    18    19   ar
    36    19    14   ar
    37     8     1    1
    38     9     3    1
    39    34    29   ar
    40    37    32    1
    41    24    25    1
@<TRIPOS>MOLECULE
*****
 37 41 0 0 0
SMALL
GASTEIGER

@<TRIPOS>ATOM
      1 N         139.9230  138.4903  162.9550 N.3     1  UNL1       -0.2684
      2 C         141.2515  137.8280  162.7394 C.3     1  UNL1        0.1035
      3 C         142.2981  138.5013  161.9021 C.3     1  UNL1        0.1470
      4 C         143.3448  139.1747  161.0647 C.3     1  UNL1        0.1035
      5 N         143.0629  140.5104  160.4430 N.3     1  UNL1       -0.2673
      6 C         141.7343  141.1726  160.6586 C.3     1  UNL1        0.1035
      7 C         140.6877  140.4993  161.4959 C.3     1  UNL1        0.1470
      8 C         139.6412  139.8259  162.3332 C.3     1  UNL1        0.1035
      9 O         142.0162  139.8370  161.2803 O.3     1  UNL1       -0.3530
     10 C         138.8763  137.8169  163.7923 C.3     1  UNL1        0.0761
     11 C         138.8348  138.0522  165.2732 C.3     1  UNL1        0.0646
     12 C         138.1235  139.2534  165.8220 C.3     1  UNL1        0.2068
     13 O         138.9034  140.4745  166.2100 O.3     1  UNL1       -0.4754
     14 C         139.1244  143.9878  163.4068 C.ar    1  UNL1        0.0686
     15 C         140.3138  143.6200  164.2435 C.ar    1  UNL1        0.0134
     16 C         140.2401  142.4489  165.1779 C.ar    1  UNL1        0.0376
     17 C         138.9771  141.6456  165.2756 C.ar    1  UNL1        0.1386
     18 C         137.7877  142.0134  164.4389 C.ar    1  UNL1        0.0376
     19 C         137.8614  143.1846  163.5044 C.ar    1  UNL1        0.0134
     20 N         139.2718  146.3300  161.5380 N.1     1  UNL1       -0.1908
     21 C         139.1981  145.1589  162.4724 C.1     1  UNL1        0.1004
     22 C         144.1095  141.1837  159.6056 C.3     1  UNL1        0.0913
     23 C         144.6319  142.5333  160.0004 C.3     1  UNL1        0.1087
     24 N         145.4956  142.6763  161.2184 N.3     1  UNL1       -0.1780
     25 H         145.8460  143.6343  161.2201 H       1  UNL1        0.1488
     26 S         144.9195  142.4236  162.5801 S.O2    1  UNL1        0.0603
     27 O         143.8040  143.3823  162.2861 O.2     1  UNL1       -0.1530
     28 O         146.0351  141.4649  162.8740 O.2     1  UNL1       -0.1530
     29 C         144.3435  142.1708  163.9418 C.ar    1  UNL1        0.1218
     30 C         144.3806  143.2491  164.9839 C.ar    1  UNL1        0.0230
     31 C         143.8046  142.9964  166.3456 C.ar    1  UNL1        0.0379
     32 C         143.1915  141.6653  166.6653 C.ar    1  UNL1        0.1347
     33 C         143.1544  140.5869  165.6233 C.ar    1  UNL1        0.0168
     34 C         143.7304  140.8397  164.2615 C.ar    1  UNL1        0.0187
     35 C         142.4900  139.3840  166.2246 C.3     1  UNL1        0.0768
     36 C         142.1165  139.7188  167.6382 C.3     1  UNL1        0.2102
     37 O         142.5501  141.1288  167.9105 O.3     1  UNL1       -0.4754
@<TRIPOS>BOND
     1    20    21    3
     2    21    14    1
     3    14    15   ar
     4    15    16   ar
     5    16    17   ar
     6    17    13    1
     7    13    12    1
     8    12    11    1
     9    11    10    1
    10    10     1    1
    11     1     2    1
    12     2     3    1
    13     3     4    1
    14     4     5    1
    15     5    22    1
    16    22    23    1
    17    23    24    1
    18    24    26    1
    19    26    27    2
    20    26    28    2
    21    26    29    1
    22    29    30   ar
    23    30    31   ar
    24    31    32   ar
    25    32    33   ar
    26    33    34   ar
    27    33    35    1
    28    35    36    1
    29    36    37    1
    30     5     6    1
    31     6     7    1
    32     7     8    1
    33     7     9    1
    34    17    18   ar
    35    18    19   ar
    36    19    14   ar
    37     8     1    1
    38     9     3    1
    39    34    29   ar
    40    37    32    1
    41    24    25    1
@<TRIPOS>MOLECULE
*****
 37 41 0 0 0
SMALL
GASTEIGER

@<TRIPOS>ATOM
      1 N         144.6146  142.5044  163.4225 N.3     1  UNL1       -0.2684
      2 C         144.0602  143.4285  164.4659 C.3     1  UNL1        0.1035
      3 C         142.9302  144.3538  164.1241 C.3     1  UNL1        0.1470
      4 C         141.8002  145.2792  163.7824 C.3     1  UNL1        0.1035
      5 N         141.2246  145.2805  162.3972 N.3     1  UNL1       -0.2673
      6 C         141.7790  144.3564  161.3538 C.3     1  UNL1        0.1035
      7 C         142.9090  143.4310  161.6956 C.3     1  UNL1        0.1470
      8 C         144.0390  142.5057  162.0373 C.3     1  UNL1        0.1035
      9 O         142.3546  144.3551  162.7390 O.3     1  UNL1       -0.3530
     10 C         145.7446  141.5790  163.7642 C.3     1  UNL1        0.0761
     11 C         145.4593  140.1596  164.1560 C.3     1  UNL1        0.0646
     12 C         144.1893  139.8220  164.8795 C.3     1  UNL1        0.2068
     13 O         143.3870  138.6236  164.4670 O.3     1  UNL1       -0.4754
     14 C         139.7019  139.1449  161.9377 C.ar    1  UNL1        0.0686
     15 C         139.9805  137.8253  162.5941 C.ar    1  UNL1        0.0134
     16 C         141.2088  137.6515  163.4372 C.ar    1  UNL1        0.0376
     17 C         142.1587  138.7974  163.6239 C.ar    1  UNL1        0.1386
     18 C         141.8801  140.1170  162.9675 C.ar    1  UNL1        0.0376
     19 C         140.6517  140.2908  162.1244 C.ar    1  UNL1        0.0134
     20 N         137.2451  139.4926  160.2514 N.1     1  UNL1       -0.1908
     21 C         138.4735  139.3188  161.0946 C.1     1  UNL1        0.1004
     22 C         140.0946  146.2058  162.0554 C.3     1  UNL1        0.0913
     23 C         138.7990  145.6502  161.5428 C.3     1  UNL1        0.1087
     24 N         137.8103  145.0498  162.4977 N.3     1  UNL1       -0.1780
     25 H         136.9957  144.7792  161.9467 H       1  UNL1        0.1488
     26 S         138.1926  143.8554  163.3207 S.O2    1  UNL1        0.0603
     27 O         138.1180  142.9893  162.0983 O.2     1  UNL1       -0.1530
     28 O         138.2672  144.7215  164.5430 O.2     1  UNL1       -0.1530
     29 C         138.5749  142.6610  164.1437 C.ar    1  UNL1        0.1218
     30 C         137.7243  141.4259  164.1133 C.ar    1  UNL1        0.0230
     31 C         138.1065  140.2315  164.9362 C.ar    1  UNL1        0.0379
     32 C         139.3395  140.2722  165.7896 C.ar    1  UNL1        0.1347
     33 C         140.1901  141.5073  165.8199 C.ar    1  UNL1        0.0168
     34 C         139.8079  142.7017  164.9970 C.ar    1  UNL1        0.0187
     35 C         141.3399  141.2555  166.7498 C.3     1  UNL1        0.0768
     36 C         141.1999  139.8648  167.2941 C.3     1  UNL1        0.2102
     37 O         139.9636  139.2571  166.7006 O.3     1  UNL1       -0.4754
@<TRIPOS>BOND
     1    20    21    3
     2    21    14    1
     3    14    15   ar
     4    15    16   ar
     5    16    17   ar
     6    17    13    1
     7    13    12    1
     8    12    11    1
     9    11    10    1
    10    10     1    1
    11     1     2    1
    12     2     3    1
    13     3     4    1
    14     4     5    1
    15     5    22    1
    16    22    23    1
    17    23    24    1
    18    24    26    1
    19    26    27    2
    20    26    28    2
    21    26    29    1
    22    29    30   ar
    23    30    31   ar
    24    31    32   ar
    25    32    33   ar
    26    33    34   ar
    27    33    35    1
    28    35    36    1
    29    36    37    1
    30     5     6    1
    31     6     7    1
    32     7     8    1
    33     7     9    1
    34    17    18   ar
    35    18    19   ar
    36    19    14   ar
    37     8     1    1
    38     9     3    1
    39    34    29   ar
    40    37    32    1
    41    24    25    1
@<TRIPOS>MOLECULE
*****
 37 41 0 0 0
SMALL
GASTEIGER

@<TRIPOS>ATOM
      1 N         139.2998  137.5404  164.3424 N.3     1  UNL1       -0.2684
      2 C         138.7758  137.9152  162.9879 C.3     1  UNL1        0.1035
      3 C         139.7304  138.1862  161.8631 C.3     1  UNL1        0.1470
      4 C         140.6850  138.4572  160.7382 C.3     1  UNL1        0.1035
      5 N         142.1637  138.3535  160.9680 N.3     1  UNL1       -0.2673
      6 C         142.6877  137.9787  162.3226 C.3     1  UNL1        0.1035
      7 C         141.7331  137.7077  163.4474 C.3     1  UNL1        0.1470
      8 C         140.7785  137.4367  164.5722 C.3     1  UNL1        0.1035
      9 O         141.2090  138.0824  162.0929 O.3     1  UNL1       -0.3530
     10 C         138.3452  137.2694  165.4673 C.3     1  UNL1        0.0761
     11 C         138.1322  138.3009  166.5352 C.3     1  UNL1        0.0646
     12 C         138.0646  139.7545  166.1711 C.3     1  UNL1        0.2068
     13 O         139.3265  140.5552  166.0435 O.3     1  UNL1       -0.4754
     14 C         139.4592  144.1248  163.3067 C.ar    1  UNL1        0.0686
     15 C         138.9872  142.7990  162.7877 C.ar    1  UNL1        0.0134
     16 C         138.9430  141.6091  163.6999 C.ar    1  UNL1        0.0376
     17 C         139.3708  141.7451  165.1313 C.ar    1  UNL1        0.1386
     18 C         139.8428  143.0709  165.6502 C.ar    1  UNL1        0.0376
     19 C         139.8870  144.2608  164.7379 C.ar    1  UNL1        0.0134
     20 N         139.5477  146.5046  161.4821 N.1     1  UNL1       -0.1908
     21 C         139.5034  145.3147  162.3944 C.1     1  UNL1        0.1004
     22 C         143.1183  138.6245  159.8432 C.3     1  UNL1        0.0913
     23 C         144.0928  139.7605  159.9437 C.3     1  UNL1        0.1087
     24 N         143.6182  141.1211  160.3601 N.3     1  UNL1       -0.1780
     25 H         142.6515  141.2047  160.0458 H       1  UNL1        0.1488
     26 S         143.6380  141.5117  161.8082 S.O2    1  UNL1        0.0603
     27 O         142.3918  142.3217  161.6068 O.2     1  UNL1       -0.1530
     28 O         144.8843  140.7016  162.0096 O.2     1  UNL1       -0.1530
     29 C         143.6579  141.9022  163.2563 C.ar    1  UNL1        0.1218
     30 C         144.2660  143.2087  163.6725 C.ar    1  UNL1        0.0230
     31 C         144.2859  143.5993  165.1206 C.ar    1  UNL1        0.0379
     32 C         143.6977  142.6834  166.1525 C.ar    1  UNL1        0.1347
     33 C         143.0895  141.3768  165.7364 C.ar    1  UNL1        0.0168
     34 C         143.0696  140.9863  164.2883 C.ar    1  UNL1        0.0187
     35 C         142.5895  140.6846  166.9696 C.3     1  UNL1        0.0768
     36 C         142.8886  141.5633  168.1479 C.3     1  UNL1        0.2102
     37 O         143.5735  142.7986  167.6429 O.3     1  UNL1       -0.4754
@<TRIPOS>BOND
     1    20    21    3
     2    21    14    1
     3    14    15   ar
     4    15    16   ar
     5    16    17   ar
     6    17    13    1
     7    13    12    1
     8    12    11    1
     9    11    10    1
    10    10     1    1
    11     1     2    1
    12     2     3    1
    13     3     4    1
    14     4     5    1
    15     5    22    1
    16    22    23    1
    17    23    24    1
    18    24    26    1
    19    26    27    2
    20    26    28    2
    21    26    29    1
    22    29    30   ar
    23    30    31   ar
    24    31    32   ar
    25    32    33   ar
    26    33    34   ar
    27    33    35    1
    28    35    36    1
    29    36    37    1
    30     5     6    1
    31     6     7    1
    32     7     8    1
    33     7     9    1
    34    17    18   ar
    35    18    19   ar
    36    19    14   ar
    37     8     1    1
    38     9     3    1
    39    34    29   ar
    40    37    32    1
    41    24    25    1
@<TRIPOS>MOLECULE
*****
 37 41 0 0 0
SMALL
GASTEIGER

@<TRIPOS>ATOM
      1 N         138.9818  139.0588  162.3645 N.3     1  UNL1       -0.2684
      2 C         138.1021  140.2565  162.5683 C.3     1  UNL1        0.1035
      3 C         138.3787  141.5263  161.8193 C.3     1  UNL1        0.1470
      4 C         138.6553  142.7963  161.0704 C.3     1  UNL1        0.1035
      5 N         139.8116  142.8684  160.1177 N.3     1  UNL1       -0.2673
      6 C         140.6914  141.6707  159.9139 C.3     1  UNL1        0.1035
      7 C         140.4148  140.4008  160.6628 C.3     1  UNL1        0.1470
      8 C         140.1381  139.1310  161.4117 C.3     1  UNL1        0.1035
      9 O         139.5350  141.5985  160.8666 O.3     1  UNL1       -0.3530
     10 C         138.7052  137.7889  163.1134 C.3     1  UNL1        0.0761
     11 C         139.2643  137.5940  164.4916 C.3     1  UNL1        0.0646
     12 C         138.6051  138.2506  165.6682 C.3     1  UNL1        0.2068
     13 O         138.5094  139.7460  165.7362 O.3     1  UNL1       -0.4754
     14 C         141.0590  142.0331  168.6550 C.ar    1  UNL1        0.0686
     15 C         140.4737  140.7089  169.0475 C.ar    1  UNL1        0.0134
     16 C         139.6239  139.9466  168.0746 C.ar    1  UNL1        0.0376
     17 C         139.3593  140.5084  166.7091 C.ar    1  UNL1        0.1386
     18 C         139.9446  141.8325  166.3166 C.ar    1  UNL1        0.0376
     19 C         140.7944  142.5949  167.2896 C.ar    1  UNL1        0.0134
     20 N         142.7587  143.5578  170.6008 N.1     1  UNL1       -0.1908
     21 C         141.9088  142.7954  169.6278 C.1     1  UNL1        0.1004
     22 C         140.0882  144.1383  159.3687 C.3     1  UNL1        0.0913
     23 C         141.3073  144.9499  159.6930 C.3     1  UNL1        0.1087
     24 N         141.7426  145.1124  161.1192 N.3     1  UNL1       -0.1780
     25 H         140.9026  145.3107  161.6627 H       1  UNL1        0.1488
     26 S         142.4561  143.9931  161.8177 S.O2    1  UNL1        0.0603
     27 O         141.5229  144.1264  162.9845 O.2     1  UNL1       -0.1530
     28 O         143.3892  143.8598  160.6509 O.2     1  UNL1       -0.1530
     29 C         143.1696  142.8736  162.5162 C.ar    1  UNL1        0.1218
     30 C         144.6522  142.7129  162.3546 C.ar    1  UNL1        0.0230
     31 C         145.3658  141.5935  163.0531 C.ar    1  UNL1        0.0379
     32 C         144.5967  140.6350  163.9131 C.ar    1  UNL1        0.1347
     33 C         143.1142  140.7958  164.0747 C.ar    1  UNL1        0.0168
     34 C         142.4006  141.9151  163.3763 C.ar    1  UNL1        0.0187
     35 C         142.6256  139.7045  164.9805 C.3     1  UNL1        0.0768
     36 C         143.8061  138.8692  165.3786 C.3     1  UNL1        0.2102
     37 O         145.0244  139.4443  164.7190 O.3     1  UNL1       -0.4754
@<TRIPOS>BOND
     1    20    21    3
     2    21    14    1
     3    14    15   ar
     4    15    16   ar
     5    16    17   ar
     6    17    13    1
     7    13    12    1
     8    12    11    1
     9    11    10    1
    10    10     1    1
    11     1     2    1
    12     2     3    1
    13     3     4    1
    14     4     5    1
    15     5    22    1
    16    22    23    1
    17    23    24    1
    18    24    26    1
    19    26    27    2
    20    26    28    2
    21    26    29    1
    22    29    30   ar
    23    30    31   ar
    24    31    32   ar
    25    32    33   ar
    26    33    34   ar
    27    33    35    1
    28    35    36    1
    29    36    37    1
    30     5     6    1
    31     6     7    1
    32     7     8    1
    33     7     9    1
    34    17    18   ar
    35    18    19   ar
    36    19    14   ar
    37     8     1    1
    38     9     3    1
    39    34    29   ar
    40    37    32    1
    41    24    25    1
@<TRIPOS>MOLECULE
*****
 37 41 0 0 0
SMALL
GASTEIGER

@<TRIPOS>ATOM
      1 N         139.1854  141.0548  165.8524 N.3     1  UNL1       -0.2684
      2 C         140.0645  142.2167  166.2090 C.3     1  UNL1        0.1035
      3 C         140.1725  143.3886  165.2791 C.3     1  UNL1        0.1470
      4 C         140.2805  144.5606  164.3490 C.3     1  UNL1        0.1035
      5 N         139.5094  144.5706  163.0624 N.3     1  UNL1       -0.2673
      6 C         138.6304  143.4086  162.7058 C.3     1  UNL1        0.1035
      7 C         138.5224  142.2367  163.6358 C.3     1  UNL1        0.1470
      8 C         138.4144  141.0648  164.5658 C.3     1  UNL1        0.1035
      9 O         139.4014  143.3986  163.9924 O.3     1  UNL1       -0.3530
     10 C         139.0774  139.8828  166.7824 C.3     1  UNL1        0.0761
     11 C         138.0495  138.8194  166.5326 C.3     1  UNL1        0.0646
     12 C         138.4313  137.5626  165.8081 C.3     1  UNL1        0.2068
     13 O         139.7262  137.4956  165.0539 O.3     1  UNL1       -0.4754
     14 C         139.7966  138.3053  160.6280 C.ar    1  UNL1        0.0686
     15 C         138.4860  138.1886  161.3483 C.ar    1  UNL1        0.0134
     16 C         138.4626  137.9187  162.8236 C.ar    1  UNL1        0.0376
     17 C         139.7496  137.7655  163.5786 C.ar    1  UNL1        0.1386
     18 C         141.0602  137.8821  162.8583 C.ar    1  UNL1        0.0376
     19 C         141.0836  138.1520  161.3829 C.ar    1  UNL1        0.0134
     20 N         139.8435  138.8451  157.6773 N.1     1  UNL1       -0.1908
     21 C         139.8200  138.5752  159.1527 C.1     1  UNL1        0.1004
     22 C         139.6174  145.7425  162.1324 C.3     1  UNL1        0.0913
     23 C         140.2373  145.5701  160.7774 C.3     1  UNL1        0.1087
     24 N         141.7094  145.3103  160.6536 N.3     1  UNL1       -0.1780
     25 H         142.1835  146.0501  161.1715 H       1  UNL1        0.1488
     26 S         142.2843  144.0100  161.1319 S.O2    1  UNL1        0.0603
     27 O         143.1898  144.7546  162.0676 O.2     1  UNL1       -0.1530
     28 O         141.3788  143.2655  160.1962 O.2     1  UNL1       -0.1530
     29 C         142.8592  142.7097  161.6102 C.ar    1  UNL1        0.1218
     30 C         143.4132  141.7262  160.6224 C.ar    1  UNL1        0.0230
     31 C         143.9881  140.4259  161.1006 C.ar    1  UNL1        0.0379
     32 C         144.0089  140.1091  162.5666 C.ar    1  UNL1        0.1347
     33 C         143.4548  141.0926  163.5544 C.ar    1  UNL1        0.0168
     34 C         142.8800  142.3929  163.0762 C.ar    1  UNL1        0.0187
     35 C         143.6107  140.5086  164.9272 C.3     1  UNL1        0.0768
     36 C         144.2611  139.1641  164.7879 C.3     1  UNL1        0.2102
     37 O         144.5072  138.9172  163.3290 O.3     1  UNL1       -0.4754
@<TRIPOS>BOND
     1    20    21    3
     2    21    14    1
     3    14    15   ar
     4    15    16   ar
     5    16    17   ar
     6    17    13    1
     7    13    12    1
     8    12    11    1
     9    11    10    1
    10    10     1    1
    11     1     2    1
    12     2     3    1
    13     3     4    1
    14     4     5    1
    15     5    22    1
    16    22    23    1
    17    23    24    1
    18    24    26    1
    19    26    27    2
    20    26    28    2
    21    26    29    1
    22    29    30   ar
    23    30    31   ar
    24    31    32   ar
    25    32    33   ar
    26    33    34   ar
    27    33    35    1
    28    35    36    1
    29    36    37    1
    30     5     6    1
    31     6     7    1
    32     7     8    1
    33     7     9    1
    34    17    18   ar
    35    18    19   ar
    36    19    14   ar
    37     8     1    1
    38     9     3    1
    39    34    29   ar
    40    37    32    1
    41    24    25    1
@<TRIPOS>MOLECULE
*****
 37 41 0 0 0
SMALL
GASTEIGER

@<TRIPOS>ATOM
      1 N         143.2501  140.7517  160.0917 N.3     1  UNL1       -0.2684
      2 C         143.8111  141.8408  160.9571 C.3     1  UNL1        0.1035
      3 C         143.0437  143.1150  161.1507 C.3     1  UNL1        0.1470
      4 C         142.2763  144.3893  161.3444 C.3     1  UNL1        0.1035
      5 N         140.9480  144.5743  160.6727 N.3     1  UNL1       -0.2673
      6 C         140.3870  143.4850  159.8073 C.3     1  UNL1        0.1035
      7 C         141.1543  142.2109  159.6136 C.3     1  UNL1        0.1470
      8 C         141.9217  140.9367  159.4200 C.3     1  UNL1        0.1035
      9 O         141.7153  143.3000  160.4790 O.3     1  UNL1       -0.3530
     10 C         144.0175  139.4774  159.8980 C.3     1  UNL1        0.0761
     11 C         143.9978  138.4209  160.9626 C.3     1  UNL1        0.0646
     12 C         142.8087  137.5170  161.1004 C.3     1  UNL1        0.2068
     13 O         141.4233  138.0915  161.0775 O.3     1  UNL1       -0.4754
     14 C         138.9693  138.1981  164.8480 C.ar    1  UNL1        0.0686
     15 C         138.6039  139.0790  163.6902 C.ar    1  UNL1        0.0134
     16 C         139.4219  139.0435  162.4334 C.ar    1  UNL1        0.0376
     17 C         140.6053  138.1270  162.3343 C.ar    1  UNL1        0.1386
     18 C         140.9707  137.2461  163.4922 C.ar    1  UNL1        0.0376
     19 C         140.1527  137.2817  164.7490 C.ar    1  UNL1        0.0134
     20 N         137.3334  138.2693  167.3618 N.1     1  UNL1       -0.1908
     21 C         138.1514  138.2337  166.1048 C.1     1  UNL1        0.1004
     22 C         140.1806  145.8485  160.8664 C.3     1  UNL1        0.0913
     23 C         139.2960  146.0163  162.0661 C.3     1  UNL1        0.1087
     24 N         138.5152  144.8484  162.5915 N.3     1  UNL1       -0.1780
     25 H         138.1402  144.3562  161.7807 H       1  UNL1        0.1488
     26 S         139.1906  143.8192  163.4486 S.O2    1  UNL1        0.0603
     27 O         138.5602  142.7280  162.6351 O.2     1  UNL1       -0.1530
     28 O         139.8211  144.9104  164.2621 O.2     1  UNL1       -0.1530
     29 C         139.8661  142.7900  164.3057 C.ar    1  UNL1        0.1218
     30 C         139.3316  142.4853  165.6737 C.ar    1  UNL1        0.0230
     31 C         140.0070  141.4562  166.5308 C.ar    1  UNL1        0.0379
     32 C         141.2170  140.7318  166.0199 C.ar    1  UNL1        0.1347
     33 C         141.7516  141.0365  164.6519 C.ar    1  UNL1        0.0168
     34 C         141.0762  142.0656  163.7948 C.ar    1  UNL1        0.0187
     35 C         142.9521  140.1678  164.4193 C.3     1  UNL1        0.0768
     36 C         143.1595  139.3262  165.6435 C.3     1  UNL1        0.2102
     37 O         142.0872  139.6748  166.6327 O.3     1  UNL1       -0.4754
@<TRIPOS>BOND
     1    20    21    3
     2    21    14    1
     3    14    15   ar
     4    15    16   ar
     5    16    17   ar
     6    17    13    1
     7    13    12    1
     8    12    11    1
     9    11    10    1
    10    10     1    1
    11     1     2    1
    12     2     3    1
    13     3     4    1
    14     4     5    1
    15     5    22    1
    16    22    23    1
    17    23    24    1
    18    24    26    1
    19    26    27    2
    20    26    28    2
    21    26    29    1
    22    29    30   ar
    23    30    31   ar
    24    31    32   ar
    25    32    33   ar
    26    33    34   ar
    27    33    35    1
    28    35    36    1
    29    36    37    1
    30     5     6    1
    31     6     7    1
    32     7     8    1
    33     7     9    1
    34    17    18   ar
    35    18    19   ar
    36    19    14   ar
    37     8     1    1
    38     9     3    1
    39    34    29   ar
    40    37    32    1
    41    24    25    1
@<TRIPOS>MOLECULE
*****
 37 41 0 0 0
SMALL
GASTEIGER

@<TRIPOS>ATOM
      1 N         143.3434  140.4238  160.5595 N.3     1  UNL1       -0.2684
      2 C         142.0568  140.5146  159.7938 C.3     1  UNL1        0.1035
      3 C         141.3019  141.8099  159.7468 C.3     1  UNL1        0.1470
      4 C         140.5469  143.1053  159.6997 C.3     1  UNL1        0.1035
      5 N         141.0786  144.3097  160.4185 N.3     1  UNL1       -0.2673
      6 C         142.3652  144.2188  161.1843 C.3     1  UNL1        0.1035
      7 C         143.1201  142.9236  161.2313 C.3     1  UNL1        0.1470
      8 C         143.8750  141.6283  161.2783 C.3     1  UNL1        0.1035
      9 O         141.8336  143.0144  160.4656 O.3     1  UNL1       -0.3530
     10 C         144.0984  139.1285  160.6066 C.3     1  UNL1        0.0761
     11 C         143.6928  138.0588  161.5767 C.3     1  UNL1        0.0646
     12 C         143.5341  138.3868  163.0318 C.3     1  UNL1        0.2068
     13 O         142.4553  139.3302  163.4746 O.3     1  UNL1       -0.4754
     14 C         142.8544  141.5309  167.3794 C.ar    1  UNL1        0.0686
     15 C         142.6726  140.0420  167.3728 C.ar    1  UNL1        0.0134
     16 C         142.5396  139.3084  166.0713 C.ar    1  UNL1        0.0376
     17 C         142.5883  140.0638  164.7762 C.ar    1  UNL1        0.1386
     18 C         142.7701  141.5527  164.7828 C.ar    1  UNL1        0.0376
     19 C         142.9031  142.2863  166.0845 C.ar    1  UNL1        0.0134
     20 N         143.1204  142.9980  169.9827 N.1     1  UNL1       -0.1908
     21 C         142.9874  142.2645  168.6810 C.1     1  UNL1        0.1004
     22 C         140.3236  145.6050  160.3715 C.3     1  UNL1        0.0913
     23 C         139.7118  146.1624  161.6226 C.3     1  UNL1        0.1087
     24 N         138.5129  145.4979  162.2316 N.3     1  UNL1       -0.1780
     25 H         137.8324  145.3741  161.4819 H       1  UNL1        0.1488
     26 S         138.6564  144.1679  162.9101 S.O2    1  UNL1        0.0603
     27 O         139.4652  144.8102  163.9979 O.2     1  UNL1       -0.1530
     28 O         137.8476  143.5257  161.8224 O.2     1  UNL1       -0.1530
     29 C         138.7999  142.8379  163.5887 C.ar    1  UNL1        0.1218
     30 C         139.0882  142.7734  165.0593 C.ar    1  UNL1        0.0230
     31 C         139.2317  141.4434  165.7379 C.ar    1  UNL1        0.0379
     32 C         139.0869  140.1779  164.9459 C.ar    1  UNL1        0.1347
     33 C         138.7986  140.2423  163.4752 C.ar    1  UNL1        0.0168
     34 C         138.6551  141.5723  162.7967 C.ar    1  UNL1        0.0187
     35 C         138.7088  138.8370  162.9585 C.3     1  UNL1        0.0768
     36 C         138.9416  137.9040  164.1097 C.3     1  UNL1        0.2102
     37 O         139.1753  138.7328  165.3380 O.3     1  UNL1       -0.4754
@<TRIPOS>BOND
     1    20    21    3
     2    21    14    1
     3    14    15   ar
     4    15    16   ar
     5    16    17   ar
     6    17    13    1
     7    13    12    1
     8    12    11    1
     9    11    10    1
    10    10     1    1
    11     1     2    1
    12     2     3    1
    13     3     4    1
    14     4     5    1
    15     5    22    1
    16    22    23    1
    17    23    24    1
    18    24    26    1
    19    26    27    2
    20    26    28    2
    21    26    29    1
    22    29    30   ar
    23    30    31   ar
    24    31    32   ar
    25    32    33   ar
    26    33    34   ar
    27    33    35    1
    28    35    36    1
    29    36    37    1
    30     5     6    1
    31     6     7    1
    32     7     8    1
    33     7     9    1
    34    17    18   ar
    35    18    19   ar
    36    19    14   ar
    37     8     1    1
    38     9     3    1
    39    34    29   ar
    40    37    32    1
    41    24    25    1
@<TRIPOS>MOLECULE
*****
 37 41 0 0 0
SMALL
GASTEIGER

@<TRIPOS>ATOM
      1 N         139.2408  137.8125  164.3125 N.3     1  UNL1       -0.2684
      2 C         140.7200  137.5696  164.2607 C.3     1  UNL1        0.1035
      3 C         141.4528  137.6787  162.9564 C.3     1  UNL1        0.1470
      4 C         142.1856  137.7878  161.6521 C.3     1  UNL1        0.1035
      5 N         141.4390  138.1398  160.3996 N.3     1  UNL1       -0.2673
      6 C         139.9596  138.3827  160.4514 C.3     1  UNL1        0.1035
      7 C         139.2269  138.2736  161.7557 C.3     1  UNL1        0.1470
      8 C         138.4942  138.1644  163.0600 C.3     1  UNL1        0.1035
      9 O         140.7062  138.0307  161.7039 O.3     1  UNL1       -0.3530
     10 C         138.5080  137.7034  165.6168 C.3     1  UNL1        0.0761
     11 C         138.1157  138.9442  166.3627 C.3     1  UNL1        0.0646
     12 C         139.1620  139.7632  167.0589 C.3     1  UNL1        0.2068
     13 O         140.3002  140.3479  166.2764 O.3     1  UNL1       -0.4754
     14 C         139.5803  143.8303  163.5187 C.ar    1  UNL1        0.0686
     15 C         139.6315  142.4358  162.9683 C.ar    1  UNL1        0.0134
     16 C         139.8715  141.2750  163.8875 C.ar    1  UNL1        0.0376
     17 C         140.0603  141.5087  165.3572 C.ar    1  UNL1        0.1386
     18 C         140.0091  142.9031  165.9075 C.ar    1  UNL1        0.0376
     19 C         139.7691  144.0639  164.9882 C.ar    1  UNL1        0.0134
     20 N         139.1004  146.1519  161.6802 N.1     1  UNL1       -0.1908
     21 C         139.3404  144.9910  162.5995 C.1     1  UNL1        0.1004
     22 C         142.1717  138.2489  159.0953 C.3     1  UNL1        0.0913
     23 C         141.8402  139.3561  158.1391 C.3     1  UNL1        0.1087
     24 N         142.5737  140.6620  158.2204 N.3     1  UNL1       -0.1780
     25 H         142.0796  141.3156  157.6128 H       1  UNL1        0.1488
     26 S         142.7433  141.3457  159.5447 S.O2    1  UNL1        0.0603
     27 O         144.2032  141.0013  159.5355 O.2     1  UNL1       -0.1530
     28 O         141.2835  141.6901  159.5540 O.2     1  UNL1       -0.1530
     29 C         142.9130  142.0294  160.8691 C.ar    1  UNL1        0.1218
     30 C         142.7820  143.5206  160.9655 C.ar    1  UNL1        0.0230
     31 C         142.9516  144.2043  162.2897 C.ar    1  UNL1        0.0379
     32 C         143.2522  143.3969  163.5176 C.ar    1  UNL1        0.1347
     33 C         143.3831  141.9057  163.4212 C.ar    1  UNL1        0.0168
     34 C         143.2135  141.2220  162.0969 C.ar    1  UNL1        0.0187
     35 C         143.6818  141.3770  164.7928 C.3     1  UNL1        0.0768
     36 C         143.7354  142.5414  165.7369 C.3     1  UNL1        0.2102
     37 O         143.4699  143.7897  164.9488 O.3     1  UNL1       -0.4754
@<TRIPOS>BOND
     1    20    21    3
     2    21    14    1
     3    14    15   ar
     4    15    16   ar
     5    16    17   ar
     6    17    13    1
     7    13    12    1
     8    12    11    1
     9    11    10    1
    10    10     1    1
    11     1     2    1
    12     2     3    1
    13     3     4    1
    14     4     5    1
    15     5    22    1
    16    22    23    1
    17    23    24    1
    18    24    26    1
    19    26    27    2
    20    26    28    2
    21    26    29    1
    22    29    30   ar
    23    30    31   ar
    24    31    32   ar
    25    32    33   ar
    26    33    34   ar
    27    33    35    1
    28    35    36    1
    29    36    37    1
    30     5     6    1
    31     6     7    1
    32     7     8    1
    33     7     9    1
    34    17    18   ar
    35    18    19   ar
    36    19    14   ar
    37     8     1    1
    38     9     3    1
    39    34    29   ar
    40    37    32    1
    41    24    25    1
