@<TRIPOS>MOLECULE
*****
 27 30 0 0 0
SMALL
GASTEIGER

@<TRIPOS>ATOM
      1 C         139.6264  140.1462  165.3793 C.3     1  UNL1        0.0841
      2 C         140.7291  139.7839  164.4293 C.3     1  UNL1        0.0376
      3 C         140.4558  139.7090  162.9563 C.3     1  UNL1        0.0738
      4 N         139.0796  139.9965  162.4333 N.3     1  UNL1       -0.2724
      5 C         137.9768  140.3588  163.3834 C.3     1  UNL1        0.0738
      6 C         138.2502  140.4337  164.8564 C.3     1  UNL1        0.0376
      7 O         137.8397  138.7642  167.7346 O.2     1  UNL1       -0.2501
      8 C         139.0785  139.5858  167.9349 C.2     1  UNL1        0.3309
      9 N         139.7137  139.9165  169.2529 N.am    1  UNL1       -0.1647
     10 C         140.9274  140.7561  168.9850 C.2     1  UNL1        0.0706
     11 C         141.9428  141.3735  169.9003 C.3     1  UNL1        0.0705
     12 C         143.0732  142.1792  169.3319 C.2     1  UNL1       -0.0199
     13 C         143.1882  142.3674  167.8482 C.2     1  UNL1       -0.0029
     14 C         142.1729  141.7500  166.9329 C.2     1  UNL1        0.0156
     15 C         141.0425  140.9443  167.5013 C.2     1  UNL1        0.0668
     16 N         139.8998  140.2210  166.8523 N.am    1  UNL1       -0.2423
     17 C         138.8062  139.9216  160.9604 C.3     1  UNL1        0.0759
     18 C         138.1981  141.0944  160.2499 C.3     1  UNL1        0.0646
     19 C         138.9874  142.3581  160.0770 C.3     1  UNL1        0.2068
     20 O         138.5915  143.5977  160.8232 O.3     1  UNL1       -0.4754
     21 C         138.8545  143.7025  162.2962 C.ar    1  UNL1        0.1387
     22 C         140.2302  143.4398  162.8330 C.ar    1  UNL1        0.0392
     23 C         140.4932  143.5446  164.3061 C.ar    1  UNL1        0.0327
     24 C         139.3804  143.9122  165.2422 C.ar    1  UNL1        0.1403
     25 F         139.6433  144.0170  166.7153 F       1  UNL1       -0.2042
     26 C         138.0046  144.1749  164.7054 C.ar    1  UNL1        0.0327
     27 C         137.7416  144.0701  163.2323 C.ar    1  UNL1        0.0392
@<TRIPOS>BOND
     1     7     8    2
     2     8     9    1
     3     9    10    2
     4    10    11    1
     5    11    12    1
     6    12    13    2
     7    13    14    1
     8    14    15    2
     9    15    16    1
    10    16     1    1
    11     1     2    1
    12     2     3    1
    13     3     4    1
    14     4    17    1
    15    17    18    1
    16    18    19    1
    17    19    20    1
    18    20    21    1
    19    21    22   ar
    20    22    23   ar
    21    23    24   ar
    22    24    25    1
    23    24    26   ar
    24    26    27   ar
    25     4     5    1
    26     5     6    1
    27    16     8   am
    28     6     1    1
    29    15    10    1
    30    27    21   ar
@<TRIPOS>MOLECULE
*****
 27 30 0 0 0
SMALL
GASTEIGER

@<TRIPOS>ATOM
      1 C         142.3536  141.6501  165.0307 C.3     1  UNL1        0.0841
      2 C         142.8720  143.0543  165.1277 C.3     1  UNL1        0.0376
      3 C         142.7945  143.9662  163.9393 C.3     1  UNL1        0.0738
      4 N         142.1986  143.4739  162.6538 N.3     1  UNL1       -0.2724
      5 C         141.6802  142.0697  162.5567 C.3     1  UNL1        0.0738
      6 C         141.7577  141.1578  163.7452 C.3     1  UNL1        0.0376
      7 O         144.1426  138.9294  165.2476 O.2     1  UNL1       -0.2501
      8 C         143.2534  139.4877  166.3189 C.2     1  UNL1        0.3309
      9 N         143.0303  138.8934  167.6779 N.am    1  UNL1       -0.1647
     10 C         142.0701  139.7766  168.4182 C.2     1  UNL1        0.0706
     11 C         141.4853  139.6899  169.7967 C.3     1  UNL1        0.0705
     12 C         140.5300  140.7434  170.2737 C.2     1  UNL1       -0.0199
     13 C         140.1596  141.8836  169.3721 C.2     1  UNL1       -0.0029
     14 C         140.7445  141.9703  167.9936 C.2     1  UNL1        0.0156
     15 C         141.6998  140.9168  167.5167 C.2     1  UNL1        0.0668
     16 N         142.4311  140.7382  166.2192 N.am    1  UNL1       -0.2423
     17 C         142.1211  144.3858  161.4653 C.3     1  UNL1        0.0759
     18 C         140.7877  144.7360  160.8743 C.3     1  UNL1        0.0646
     19 C         139.9807  145.8583  161.4568 C.3     1  UNL1        0.2068
     20 O         138.6675  145.5709  162.1225 O.3     1  UNL1       -0.4754
     21 C         138.4985  144.3257  162.9414 C.ar    1  UNL1        0.1387
     22 C         137.7919  143.1365  162.3611 C.ar    1  UNL1        0.0392
     23 C         137.6228  141.8913  163.1801 C.ar    1  UNL1        0.0327
     24 C         138.1603  141.8352  164.5793 C.ar    1  UNL1        0.1403
     25 F         137.9913  140.5899  165.3983 F       1  UNL1       -0.2042
     26 C         138.8669  143.0243  165.1596 C.ar    1  UNL1        0.0327
     27 C         139.0360  144.2696  164.3406 C.ar    1  UNL1        0.0392
@<TRIPOS>BOND
     1     7     8    2
     2     8     9    1
     3     9    10    2
     4    10    11    1
     5    11    12    1
     6    12    13    2
     7    13    14    1
     8    14    15    2
     9    15    16    1
    10    16     1    1
    11     1     2    1
    12     2     3    1
    13     3     4    1
    14     4    17    1
    15    17    18    1
    16    18    19    1
    17    19    20    1
    18    20    21    1
    19    21    22   ar
    20    22    23   ar
    21    23    24   ar
    22    24    25    1
    23    24    26   ar
    24    26    27   ar
    25     4     5    1
    26     5     6    1
    27    16     8   am
    28     6     1    1
    29    15    10    1
    30    27    21   ar
@<TRIPOS>MOLECULE
*****
 27 30 0 0 0
SMALL
GASTEIGER

@<TRIPOS>ATOM
      1 C         140.8888  139.7556  166.4390 C.3     1  UNL1        0.0841
      2 C         141.6424  139.3709  165.2005 C.3     1  UNL1        0.0376
      3 C         140.8979  138.9150  163.9807 C.3     1  UNL1        0.0738
      4 N         139.3998  138.8437  163.9994 N.3     1  UNL1       -0.2724
      5 C         138.6461  139.2284  165.2379 C.3     1  UNL1        0.0738
      6 C         139.3906  139.6844  166.4577 C.3     1  UNL1        0.0376
      7 O         143.3818  138.1995  167.8579 O.2     1  UNL1       -0.2501
      8 C         142.7792  139.4963  168.3109 C.2     1  UNL1        0.3309
      9 N         143.2167  140.3055  169.4957 N.am    1  UNL1       -0.1647
     10 C         142.3412  141.5209  169.5758 C.2     1  UNL1        0.0706
     11 C         142.3086  142.6729  170.5358 C.3     1  UNL1        0.0705
     12 C         141.2975  143.7669  170.3605 C.2     1  UNL1       -0.0199
     13 C         140.3189  143.7088  169.2251 C.2     1  UNL1       -0.0029
     14 C         140.3515  142.5568  168.2651 C.2     1  UNL1        0.0156
     15 C         141.3626  141.4628  168.4405 C.2     1  UNL1        0.0668
     16 N         141.6333  140.2115  167.6587 N.am    1  UNL1       -0.2423
     17 C         138.6553  138.3878  162.7796 C.3     1  UNL1        0.0759
     18 C         137.7912  139.3533  162.0238 C.3     1  UNL1        0.0646
     19 C         138.4162  140.3452  161.0881 C.3     1  UNL1        0.2068
     20 O         139.4940  141.2648  161.5807 O.3     1  UNL1       -0.4754
     21 C         139.1842  142.2876  162.6333 C.ar    1  UNL1        0.1387
     22 C         140.0931  142.4456  163.8160 C.ar    1  UNL1        0.0392
     23 C         139.7833  143.4684  164.8686 C.ar    1  UNL1        0.0327
     24 C         138.5646  144.3331  164.7384 C.ar    1  UNL1        0.1403
     25 F         138.2547  145.3559  165.7909 F       1  UNL1       -0.2042
     26 C         137.6557  144.1750  163.5556 C.ar    1  UNL1        0.0327
     27 C         137.9655  143.1522  162.5030 C.ar    1  UNL1        0.0392
@<TRIPOS>BOND
     1     7     8    2
     2     8     9    1
     3     9    10    2
     4    10    11    1
     5    11    12    1
     6    12    13    2
     7    13    14    1
     8    14    15    2
     9    15    16    1
    10    16     1    1
    11     1     2    1
    12     2     3    1
    13     3     4    1
    14     4    17    1
    15    17    18    1
    16    18    19    1
    17    19    20    1
    18    20    21    1
    19    21    22   ar
    20    22    23   ar
    21    23    24   ar
    22    24    25    1
    23    24    26   ar
    24    26    27   ar
    25     4     5    1
    26     5     6    1
    27    16     8   am
    28     6     1    1
    29    15    10    1
    30    27    21   ar
@<TRIPOS>MOLECULE
*****
 27 30 0 0 0
SMALL
GASTEIGER

@<TRIPOS>ATOM
      1 C         141.0002  139.6169  166.2418 C.3     1  UNL1        0.0841
      2 C         140.1344  139.9108  165.0527 C.3     1  UNL1        0.0376
      3 C         140.5038  139.3688  163.7037 C.3     1  UNL1        0.0738
      4 N         141.7390  138.5330  163.5438 N.3     1  UNL1       -0.2724
      5 C         142.6048  138.2391  164.7329 C.3     1  UNL1        0.0738
      6 C         142.2355  138.7810  166.0819 C.3     1  UNL1        0.0376
      7 O         138.2051  139.0620  167.8323 O.2     1  UNL1       -0.2501
      8 C         139.3460  139.9038  168.3219 C.2     1  UNL1        0.3309
      9 N         139.4026  140.6383  169.6285 N.am    1  UNL1       -0.1647
     10 C         140.7222  141.3473  169.7050 C.2     1  UNL1        0.0706
     11 C         141.3307  142.2245  170.7587 C.3     1  UNL1        0.0705
     12 C         142.6982  142.8053  170.5530 C.2     1  UNL1       -0.0199
     13 C         143.4573  142.5090  169.2937 C.2     1  UNL1       -0.0029
     14 C         142.8488  141.6318  168.2400 C.2     1  UNL1        0.0156
     15 C         141.4813  141.0510  168.4457 C.2     1  UNL1        0.0668
     16 N         140.6308  140.1589  167.5909 N.am    1  UNL1       -0.2423
     17 C         142.1084  137.9911  162.1948 C.3     1  UNL1        0.0759
     18 C         143.5145  138.1282  161.6907 C.3     1  UNL1        0.0646
     19 C         144.1543  139.4827  161.6122 C.3     1  UNL1        0.2068
     20 O         144.8316  140.0632  162.8181 O.3     1  UNL1       -0.4754
     21 C         144.5498  141.4783  163.2281 C.ar    1  UNL1        0.1387
     22 C         144.5630  142.5731  162.2027 C.ar    1  UNL1        0.0392
     23 C         144.2812  143.9882  162.6128 C.ar    1  UNL1        0.0327
     24 C         143.9863  144.3084  164.0481 C.ar    1  UNL1        0.1403
     25 F         143.7045  145.7235  164.4582 F       1  UNL1       -0.2042
     26 C         143.9731  143.2137  165.0735 C.ar    1  UNL1        0.0327
     27 C         144.2549  141.7986  164.6635 C.ar    1  UNL1        0.0392
@<TRIPOS>BOND
     1     7     8    2
     2     8     9    1
     3     9    10    2
     4    10    11    1
     5    11    12    1
     6    12    13    2
     7    13    14    1
     8    14    15    2
     9    15    16    1
    10    16     1    1
    11     1     2    1
    12     2     3    1
    13     3     4    1
    14     4    17    1
    15    17    18    1
    16    18    19    1
    17    19    20    1
    18    20    21    1
    19    21    22   ar
    20    22    23   ar
    21    23    24   ar
    22    24    25    1
    23    24    26   ar
    24    26    27   ar
    25     4     5    1
    26     5     6    1
    27    16     8   am
    28     6     1    1
    29    15    10    1
    30    27    21   ar
@<TRIPOS>MOLECULE
*****
 27 30 0 0 0
SMALL
GASTEIGER

@<TRIPOS>ATOM
      1 C         141.7436  140.8904  164.9812 C.3     1  UNL1        0.0841
      2 C         141.7146  140.1301  163.6886 C.3     1  UNL1        0.0376
      3 C         141.3359  140.8282  162.4161 C.3     1  UNL1        0.0738
      4 N         140.9863  142.2868  162.4362 N.3     1  UNL1       -0.2724
      5 C         141.0153  143.0472  163.7289 C.3     1  UNL1        0.0738
      6 C         141.3940  142.3490  165.0014 C.3     1  UNL1        0.0376
      7 O         144.2671  138.8594  165.3772 O.2     1  UNL1       -0.2501
      8 C         143.2821  139.2587  166.4357 C.2     1  UNL1        0.3309
      9 N         143.2841  138.7946  167.8621 N.am    1  UNL1       -0.1647
     10 C         142.1255  139.4413  168.5616 C.2     1  UNL1        0.0706
     11 C         141.6316  139.3552  169.9753 C.3     1  UNL1        0.0705
     12 C         140.4196  140.1329  170.3950 C.2     1  UNL1       -0.0199
     13 C         139.7015  140.9967  169.4009 C.2     1  UNL1       -0.0029
     14 C         140.1954  141.0828  167.9872 C.2     1  UNL1        0.0156
     15 C         141.4074  140.3051  167.5676 C.2     1  UNL1        0.0668
     16 N         142.1222  140.1922  166.2537 N.am    1  UNL1       -0.2423
     17 C         140.6077  142.9849  161.1637 C.3     1  UNL1        0.0759
     18 C         139.1725  143.0267  160.7296 C.3     1  UNL1        0.0646
     19 C         138.0794  142.7908  161.7294 C.3     1  UNL1        0.2068
     20 O         137.3555  141.4773  161.7531 O.3     1  UNL1       -0.4754
     21 C         137.8106  140.3867  162.6769 C.ar    1  UNL1        0.1387
     22 C         138.1531  139.0333  162.1282 C.ar    1  UNL1        0.0392
     23 C         138.6083  137.9427  163.0520 C.ar    1  UNL1        0.0327
     24 C         138.7209  138.2055  164.5245 C.ar    1  UNL1        0.1403
     25 F         139.1760  137.1149  165.4483 F       1  UNL1       -0.2042
     26 C         138.3783  139.5588  165.0732 C.ar    1  UNL1        0.0327
     27 C         137.9232  140.6495  164.1494 C.ar    1  UNL1        0.0392
@<TRIPOS>BOND
     1     7     8    2
     2     8     9    1
     3     9    10    2
     4    10    11    1
     5    11    12    1
     6    12    13    2
     7    13    14    1
     8    14    15    2
     9    15    16    1
    10    16     1    1
    11     1     2    1
    12     2     3    1
    13     3     4    1
    14     4    17    1
    15    17    18    1
    16    18    19    1
    17    19    20    1
    18    20    21    1
    19    21    22   ar
    20    22    23   ar
    21    23    24   ar
    22    24    25    1
    23    24    26   ar
    24    26    27   ar
    25     4     5    1
    26     5     6    1
    27    16     8   am
    28     6     1    1
    29    15    10    1
    30    27    21   ar
@<TRIPOS>MOLECULE
*****
 27 30 0 0 0
SMALL
GASTEIGER

@<TRIPOS>ATOM
      1 C         142.1655  139.7582  165.1289 C.3     1  UNL1        0.0841
      2 C         141.8532  140.9356  164.2536 C.3     1  UNL1        0.0376
      3 C         141.7356  140.7562  162.7690 C.3     1  UNL1        0.0738
      4 N         141.9304  139.3994  162.1597 N.3     1  UNL1       -0.2724
      5 C         142.2427  138.2220  163.0350 C.3     1  UNL1        0.0738
      6 C         142.3603  138.4014  164.5196 C.3     1  UNL1        0.0376
      7 O         143.8957  137.8764  167.1573 O.2     1  UNL1       -0.2501
      8 C         143.0783  139.0726  167.5458 C.2     1  UNL1        0.3309
      9 N         142.9127  139.6139  168.9349 N.am    1  UNL1       -0.1647
     10 C         142.0150  140.8134  168.8611 C.2     1  UNL1        0.0706
     11 C         141.5018  141.7493  169.9149 C.3     1  UNL1        0.0705
     12 C         140.5993  142.8853  169.5340 C.2     1  UNL1       -0.0199
     13 C         140.2102  143.0853  168.0992 C.2     1  UNL1       -0.0029
     14 C         140.7235  142.1494  167.0454 C.2     1  UNL1        0.0156
     15 C         141.6259  141.0135  167.4263 C.2     1  UNL1        0.0668
     16 N         142.2830  139.9376  166.6135 N.am    1  UNL1       -0.2423
     17 C         141.8129  139.2201  160.6751 C.3     1  UNL1        0.0759
     18 C         140.4597  139.1032  160.0385 C.3     1  UNL1        0.0646
     19 C         139.4134  138.2240  160.6570 C.3     1  UNL1        0.2068
     20 O         138.2897  138.8337  161.4416 O.3     1  UNL1       -0.4754
     21 C         138.3911  138.9451  162.9340 C.ar    1  UNL1        0.1387
     22 C         138.1295  140.2596  163.6075 C.ar    1  UNL1        0.0392
     23 C         138.2308  140.3711  165.0999 C.ar    1  UNL1        0.0327
     24 C         138.5939  139.1680  165.9188 C.ar    1  UNL1        0.1403
     25 F         138.6953  139.2793  167.4113 F       1  UNL1       -0.2042
     26 C         138.8556  137.8534  165.2454 C.ar    1  UNL1        0.0327
     27 C         138.7542  137.7420  163.7529 C.ar    1  UNL1        0.0392
@<TRIPOS>BOND
     1     7     8    2
     2     8     9    1
     3     9    10    2
     4    10    11    1
     5    11    12    1
     6    12    13    2
     7    13    14    1
     8    14    15    2
     9    15    16    1
    10    16     1    1
    11     1     2    1
    12     2     3    1
    13     3     4    1
    14     4    17    1
    15    17    18    1
    16    18    19    1
    17    19    20    1
    18    20    21    1
    19    21    22   ar
    20    22    23   ar
    21    23    24   ar
    22    24    25    1
    23    24    26   ar
    24    26    27   ar
    25     4     5    1
    26     5     6    1
    27    16     8   am
    28     6     1    1
    29    15    10    1
    30    27    21   ar
@<TRIPOS>MOLECULE
*****
 27 30 0 0 0
SMALL
GASTEIGER

@<TRIPOS>ATOM
      1 C         140.5778  140.4029  164.9487 C.3     1  UNL1        0.0841
      2 C         142.0617  140.2279  164.8168 C.3     1  UNL1        0.0376
      3 C         142.7349  140.4975  163.5037 C.3     1  UNL1        0.0738
      4 N         141.9243  140.9421  162.3226 N.3     1  UNL1       -0.2724
      5 C         140.4404  141.1172  162.4544 C.3     1  UNL1        0.0738
      6 C         139.7672  140.8476  163.7675 C.3     1  UNL1        0.0376
      7 O         138.4620  137.9949  165.5607 O.2     1  UNL1       -0.2501
      8 C         138.9321  139.0265  166.5430 C.2     1  UNL1        0.3309
      9 N         138.5121  139.1324  167.9791 N.am    1  UNL1       -0.1647
     10 C         139.2250  140.3047  168.5854 C.2     1  UNL1        0.0706
     11 C         139.2017  140.8887  169.9668 C.3     1  UNL1        0.0705
     12 C         140.0391  142.0914  170.2867 C.2     1  UNL1       -0.0199
     13 C         140.8997  142.7100  169.2253 C.2     1  UNL1       -0.0029
     14 C         140.9230  142.1260  167.8439 C.2     1  UNL1        0.0156
     15 C         140.0857  140.9233  167.5239 C.2     1  UNL1        0.0668
     16 N         139.9046  140.1333  166.2617 N.am    1  UNL1       -0.2423
     17 C         142.5976  141.2117  161.0095 C.3     1  UNL1        0.0759
     18 C         142.9585  142.6163  160.6261 C.3     1  UNL1        0.0646
     19 C         143.7058  143.4885  161.5909 C.3     1  UNL1        0.2068
     20 O         143.0807  144.7550  162.0961 O.3     1  UNL1       -0.4754
     21 C         141.7390  144.7140  162.7656 C.ar    1  UNL1        0.1387
     22 C         140.5175  145.1732  162.0260 C.ar    1  UNL1        0.0392
     23 C         139.1758  145.1322  162.6955 C.ar    1  UNL1        0.0327
     24 C         139.0557  144.6320  164.1045 C.ar    1  UNL1        0.1403
     25 F         137.7140  144.5910  164.7740 F       1  UNL1       -0.2042
     26 C         140.2772  144.1728  164.8440 C.ar    1  UNL1        0.0327
     27 C         141.6189  144.2138  164.1746 C.ar    1  UNL1        0.0392
@<TRIPOS>BOND
     1     7     8    2
     2     8     9    1
     3     9    10    2
     4    10    11    1
     5    11    12    1
     6    12    13    2
     7    13    14    1
     8    14    15    2
     9    15    16    1
    10    16     1    1
    11     1     2    1
    12     2     3    1
    13     3     4    1
    14     4    17    1
    15    17    18    1
    16    18    19    1
    17    19    20    1
    18    20    21    1
    19    21    22   ar
    20    22    23   ar
    21    23    24   ar
    22    24    25    1
    23    24    26   ar
    24    26    27   ar
    25     4     5    1
    26     5     6    1
    27    16     8   am
    28     6     1    1
    29    15    10    1
    30    27    21   ar
@<TRIPOS>MOLECULE
*****
 27 30 0 0 0
SMALL
GASTEIGER

@<TRIPOS>ATOM
      1 C         140.8227  139.0569  165.0862 C.3     1  UNL1        0.0841
      2 C         141.3847  139.7707  163.8927 C.3     1  UNL1        0.0376
      3 C         140.7208  139.6325  162.5548 C.3     1  UNL1        0.0738
      4 N         139.4947  138.7805  162.4103 N.3     1  UNL1       -0.2724
      5 C         138.9326  138.0667  163.6038 C.3     1  UNL1        0.0738
      6 C         139.5966  138.2048  164.9417 C.3     1  UNL1        0.0376
      7 O         143.9737  138.5037  165.7302 O.2     1  UNL1       -0.2501
      8 C         142.9349  138.9408  166.7202 C.2     1  UNL1        0.3309
      9 N         143.1621  139.2003  168.1800 N.am    1  UNL1       -0.1647
     10 C         141.8542  139.6149  168.7862 C.2     1  UNL1        0.0706
     11 C         141.4724  139.9951  170.1861 C.3     1  UNL1        0.0705
     12 C         140.0551  140.3719  170.5008 C.2     1  UNL1       -0.0199
     13 C         139.0195  140.3687  169.4156 C.2     1  UNL1       -0.0029
     14 C         139.4013  139.9885  168.0157 C.2     1  UNL1        0.0156
     15 C         140.8187  139.6117  167.7010 C.2     1  UNL1        0.0668
     16 N         141.4866  139.1950  166.4242 N.am    1  UNL1       -0.2423
     17 C         138.8308  138.6424  161.0723 C.3     1  UNL1        0.0759
     18 C         137.7760  139.6232  160.6537 C.3     1  UNL1        0.0646
     19 C         138.1598  141.0256  160.2850 C.3     1  UNL1        0.2068
     20 O         137.7388  142.1719  161.1560 O.3     1  UNL1       -0.4754
     21 C         138.3616  142.3547  162.5082 C.ar    1  UNL1        0.1387
     22 C         139.5772  143.2197  162.6633 C.ar    1  UNL1        0.0392
     23 C         140.2001  143.4025  164.0156 C.ar    1  UNL1        0.0327
     24 C         139.6074  142.7202  165.2127 C.ar    1  UNL1        0.1403
     25 F         140.2302  142.9029  166.5650 F       1  UNL1       -0.2042
     26 C         138.3918  141.8552  165.0576 C.ar    1  UNL1        0.0327
     27 C         137.7689  141.6724  163.7053 C.ar    1  UNL1        0.0392
@<TRIPOS>BOND
     1     7     8    2
     2     8     9    1
     3     9    10    2
     4    10    11    1
     5    11    12    1
     6    12    13    2
     7    13    14    1
     8    14    15    2
     9    15    16    1
    10    16     1    1
    11     1     2    1
    12     2     3    1
    13     3     4    1
    14     4    17    1
    15    17    18    1
    16    18    19    1
    17    19    20    1
    18    20    21    1
    19    21    22   ar
    20    22    23   ar
    21    23    24   ar
    22    24    25    1
    23    24    26   ar
    24    26    27   ar
    25     4     5    1
    26     5     6    1
    27    16     8   am
    28     6     1    1
    29    15    10    1
    30    27    21   ar
@<TRIPOS>MOLECULE
*****
 27 30 0 0 0
SMALL
GASTEIGER

@<TRIPOS>ATOM
      1 C         139.7755  140.8510  165.7066 C.3     1  UNL1        0.0841
      2 C         138.3437  140.8662  165.2600 C.3     1  UNL1        0.0376
      3 C         138.0101  141.1152  163.8190 C.3     1  UNL1        0.0738
      4 N         139.1084  141.3491  162.8244 N.3     1  UNL1       -0.2724
      5 C         140.5403  141.3340  163.2710 C.3     1  UNL1        0.0738
      6 C         140.8739  141.0849  164.7121 C.3     1  UNL1        0.0376
      7 O         138.0680  138.9953  167.7779 O.2     1  UNL1       -0.2501
      8 C         139.3243  139.7490  168.0997 C.2     1  UNL1        0.3309
      9 N         140.0163  139.7821  169.4301 N.am    1  UNL1       -0.1647
     10 C         141.2289  140.6555  169.3004 C.2     1  UNL1        0.0706
     11 C         142.2882  141.0549  170.2844 C.3     1  UNL1        0.0705
     12 C         143.4048  141.9610  169.8578 C.2     1  UNL1       -0.0199
     13 C         143.4622  142.4677  168.4471 C.2     1  UNL1       -0.0029
     14 C         142.4029  142.0684  167.4631 C.2     1  UNL1        0.0156
     15 C         141.2863  141.1623  167.8897 C.2     1  UNL1        0.0668
     16 N         140.1092  140.6020  167.1477 N.am    1  UNL1       -0.2423
     17 C         138.7747  141.5981  161.3834 C.3     1  UNL1        0.0759
     18 C         138.0239  140.5641  160.5978 C.3     1  UNL1        0.0646
     19 C         138.7726  139.5049  159.8444 C.3     1  UNL1        0.2068
     20 O         138.9491  138.1412  160.4437 O.3     1  UNL1       -0.4754
     21 C         139.7770  137.9678  161.6825 C.ar    1  UNL1        0.1387
     22 C         141.2714  138.0729  161.6066 C.ar    1  UNL1        0.0392
     23 C         142.0993  137.8995  162.8454 C.ar    1  UNL1        0.0327
     24 C         141.4327  137.6210  164.1599 C.ar    1  UNL1        0.1403
     25 F         142.2606  137.4475  165.3987 F       1  UNL1       -0.2042
     26 C         139.9383  137.5159  164.2358 C.ar    1  UNL1        0.0327
     27 C         139.1104  137.6893  162.9970 C.ar    1  UNL1        0.0392
@<TRIPOS>BOND
     1     7     8    2
     2     8     9    1
     3     9    10    2
     4    10    11    1
     5    11    12    1
     6    12    13    2
     7    13    14    1
     8    14    15    2
     9    15    16    1
    10    16     1    1
    11     1     2    1
    12     2     3    1
    13     3     4    1
    14     4    17    1
    15    17    18    1
    16    18    19    1
    17    19    20    1
    18    20    21    1
    19    21    22   ar
    20    22    23   ar
    21    23    24   ar
    22    24    25    1
    23    24    26   ar
    24    26    27   ar
    25     4     5    1
    26     5     6    1
    27    16     8   am
    28     6     1    1
    29    15    10    1
    30    27    21   ar
