@<TRIPOS>MOLECULE
*****
 40 43 0 0 0
SMALL
GASTEIGER

@<TRIPOS>ATOM
      1 C         144.0220  142.9216  158.9039 C.ar    1  UNL1        0.0655
      2 C         144.6488  142.8209  160.2629 C.ar    1  UNL1        0.0337
      3 C         143.8545  143.1797  161.4838 C.ar    1  UNL1        0.0862
      4 C         142.4334  143.6394  161.3455 C.ar    1  UNL1        0.1534
      5 C         141.8065  143.7401  159.9865 C.ar    1  UNL1        0.0539
      6 C         142.6008  143.3813  158.7657 C.ar    1  UNL1        0.0647
      7 C         144.9130  141.1313  157.2454 C.2     1  UNL1        0.2497
      8 O         144.4541  140.2634  157.7269 O.2     1  UNL1       -0.2698
      9 N         144.8163  142.5628  157.6831 N.am    1  UNL1       -0.2794
     10 H         145.2740  143.2667  157.1692 H       1  UNL1        0.1552
     11 C         146.7007  141.7459  155.4630 C.2     1  UNL1        0.0048
     12 C         145.7073  140.7724  156.0246 C.2     1  UNL1        0.0580
     13 N         144.4814  143.0790  162.8427 N.pl3   1  UNL1       -0.2801
     14 H         145.0323  143.8188  163.1868 H       1  UNL1        0.1552
     15 C         144.2691  141.8509  163.6775 C.ar    1  UNL1        0.2207
     16 N         145.1790  140.6692  163.5180 N.ar    1  UNL1       -0.2123
     17 C         144.9667  139.4411  164.3528 C.ar    1  UNL1        0.0990
     18 C         143.8445  139.3949  165.3470 C.ar    1  UNL1        0.0151
     19 C         143.6322  138.1669  166.1818 C.3     1  UNL1        0.0342
     20 C         142.9345  140.5767  165.5065 C.ar    1  UNL1        0.0832
     21 N         143.1469  141.8047  164.6717 N.ar    1  UNL1       -0.2138
     22 C         141.8123  140.5305  166.5007 C.ar    1  UNL1        0.0361
     23 C         141.7688  141.2515  167.8153 C.ar    1  UNL1        0.0774
     24 N         140.4662  140.9217  168.4819 N.ar    1  UNL1       -0.3240
     25 C         140.0059  141.4278  169.8168 C.3     1  UNL1        0.1305
     26 C         139.7046  139.9969  167.5793 C.ar    1  UNL1        0.0600
     27 C         138.3610  139.3437  167.7141 C.ar    1  UNL1        0.0172
     28 C         137.8495  138.4488  166.6245 C.ar    1  UNL1        0.0015
     29 C         138.6814  138.2070  165.4000 C.ar    1  UNL1        0.0001
     30 C         140.0250  138.8602  165.2651 C.ar    1  UNL1        0.0015
     31 C         140.5366  139.7551  166.3548 C.ar    1  UNL1        0.0187
     32 O         141.6391  143.9982  162.5663 O.3     1  UNL1       -0.4701
     33 C         140.4150  143.2084  162.9236 C.3     1  UNL1        0.2525
     34 N         141.9739  143.4820  157.4067 N.pl3   1  UNL1       -0.3033
     35 C         141.4442  142.6927  156.8662 C.3     1  UNL1        0.1123
     36 C         142.0392  144.7722  156.6444 C.3     1  UNL1        0.1082
     37 C         141.0971  145.8901  156.9800 C.3     1  UNL1        0.0938
     38 N         139.9054  146.1538  156.1081 N.3     1  UNL1       -0.2688
     39 C         139.5594  145.2011  155.0024 C.3     1  UNL1        0.0897
     40 C         139.0595  147.3703  156.3418 C.3     1  UNL1        0.0897
@<TRIPOS>BOND
     1    11    12    2
     2    12     7    1
     3     7     8    2
     4     7     9   am
     5     9     1    1
     6     1     2   ar
     7     2     3   ar
     8     3    13    1
     9    13    15    1
    10    15    16   ar
    11    16    17   ar
    12    17    18   ar
    13    18    19    1
    14    18    20   ar
    15    20    22    1
    16    22    23   ar
    17    23    24   ar
    18    24    25    1
    19    24    26   ar
    20    26    27   ar
    21    27    28   ar
    22    28    29   ar
    23    29    30   ar
    24    30    31   ar
    25    20    21   ar
    26     3     4   ar
    27     4    32    1
    28    32    33    1
    29     4     5   ar
    30     5     6   ar
    31     6    34    1
    32    34    35    1
    33    34    36    1
    34    36    37    1
    35    37    38    1
    36    38    39    1
    37    38    40    1
    38     6     1   ar
    39    21    15   ar
    40    31    22   ar
    41    31    26   ar
    42     9    10    1
    43    13    14    1
@<TRIPOS>MOLECULE
*****
 40 43 0 0 0
SMALL
GASTEIGER

@<TRIPOS>ATOM
      1 C         143.7964  142.8539  159.0739 C.ar    1  UNL1        0.0655
      2 C         144.5043  142.7277  160.3903 C.ar    1  UNL1        0.0337
      3 C         143.8062  143.1217  161.6582 C.ar    1  UNL1        0.0862
      4 C         142.4001  143.6419  161.6096 C.ar    1  UNL1        0.1534
      5 C         141.6922  143.7681  160.2931 C.ar    1  UNL1        0.0539
      6 C         142.3904  143.3741  159.0253 C.ar    1  UNL1        0.0647
      7 C         144.6594  141.0097  157.4603 C.2     1  UNL1        0.2497
      8 O         144.3177  140.1508  158.0444 O.2     1  UNL1       -0.2698
      9 N         144.4947  142.4599  157.8061 N.am    1  UNL1       -0.2794
     10 H         144.8448  143.1532  157.2011 H       1  UNL1        0.1552
     11 C         146.5443  141.3990  155.7150 C.2     1  UNL1        0.0048
     12 C         145.3576  140.6156  156.1925 C.2     1  UNL1        0.0580
     13 N         144.5141  142.9955  162.9746 N.pl3   1  UNL1       -0.2801
     14 H         145.1142  143.7130  163.2815 H       1  UNL1        0.1552
     15 C         144.3077  141.7760  163.8233 C.ar    1  UNL1        0.2207
     16 N         145.2385  140.6068  163.6952 N.ar    1  UNL1       -0.2123
     17 C         145.0321  139.3874  164.5440 C.ar    1  UNL1        0.0990
     18 C         143.8949  139.3372  165.5208 C.ar    1  UNL1        0.0151
     19 C         143.6884  138.1177  166.3695 C.3     1  UNL1        0.0342
     20 C         142.9640  140.5065  165.6488 C.ar    1  UNL1        0.0832
     21 N         143.1704  141.7258  164.8001 N.ar    1  UNL1       -0.2138
     22 C         141.8267  140.4563  166.6257 C.ar    1  UNL1        0.0361
     23 C         141.7845  141.1301  167.9651 C.ar    1  UNL1        0.0774
     24 N         140.4637  140.8137  168.6017 N.ar    1  UNL1       -0.3240
     25 C         139.9986  141.2841  169.9480 C.3     1  UNL1        0.1305
     26 C         139.6896  139.9443  167.6557 C.ar    1  UNL1        0.0600
     27 C         138.3265  139.3252  167.7487 C.ar    1  UNL1        0.0172
     28 C         137.8058  138.4853  166.6203 C.ar    1  UNL1        0.0015
     29 C         138.6482  138.2644  165.3990 C.ar    1  UNL1        0.0001
     30 C         140.0113  138.8834  165.3060 C.ar    1  UNL1        0.0015
     31 C         140.5320  139.7234  166.4344 C.ar    1  UNL1        0.0187
     32 O         141.7019  144.0359  162.8774 O.3     1  UNL1       -0.4701
     33 C         141.9636  145.3792  163.4914 C.3     1  UNL1        0.2525
     34 N         141.6825  143.5004  157.7089 N.pl3   1  UNL1       -0.3033
     35 C         141.5884  144.4011  157.0960 C.3     1  UNL1        0.1123
     36 C         141.0064  142.3062  157.1033 C.3     1  UNL1        0.1082
     37 C         140.8376  141.0516  157.9080 C.3     1  UNL1        0.0938
     38 N         139.7933  140.9848  158.9827 N.3     1  UNL1       -0.2688
     39 C         138.4299  141.5613  158.7406 C.3     1  UNL1        0.0897
     40 C         140.1124  140.3414  160.2996 C.3     1  UNL1        0.0897
@<TRIPOS>BOND
     1    11    12    2
     2    12     7    1
     3     7     8    2
     4     7     9   am
     5     9     1    1
     6     1     2   ar
     7     2     3   ar
     8     3    13    1
     9    13    15    1
    10    15    16   ar
    11    16    17   ar
    12    17    18   ar
    13    18    19    1
    14    18    20   ar
    15    20    22    1
    16    22    23   ar
    17    23    24   ar
    18    24    25    1
    19    24    26   ar
    20    26    27   ar
    21    27    28   ar
    22    28    29   ar
    23    29    30   ar
    24    30    31   ar
    25    20    21   ar
    26     3     4   ar
    27     4    32    1
    28    32    33    1
    29     4     5   ar
    30     5     6   ar
    31     6    34    1
    32    34    35    1
    33    34    36    1
    34    36    37    1
    35    37    38    1
    36    38    39    1
    37    38    40    1
    38     6     1   ar
    39    21    15   ar
    40    31    22   ar
    41    31    26   ar
    42     9    10    1
    43    13    14    1
@<TRIPOS>MOLECULE
*****
 40 43 0 0 0
SMALL
GASTEIGER

@<TRIPOS>ATOM
      1 C         138.3443  140.4222  158.2753 C.ar    1  UNL1        0.0655
      2 C         137.8307  140.5461  159.6791 C.ar    1  UNL1        0.0337
      3 C         138.3286  139.6153  160.7449 C.ar    1  UNL1        0.0862
      4 C         139.3401  138.5605  160.4066 C.ar    1  UNL1        0.1534
      5 C         139.8537  138.4367  159.0026 C.ar    1  UNL1        0.0539
      6 C         139.3558  139.3675  157.9370 C.ar    1  UNL1        0.0647
      7 C         136.5060  141.1210  156.5777 C.2     1  UNL1        0.2497
      8 O         135.8021  140.3156  156.8043 O.2     1  UNL1       -0.2698
      9 N         137.8464  141.3531  157.2096 N.am    1  UNL1       -0.2794
     10 H         138.3993  142.1163  156.9250 H       1  UNL1        0.1552
     11 C         136.6351  143.4041  155.3442 C.2     1  UNL1        0.0048
     12 C         136.0079  142.0519  155.5120 C.2     1  UNL1        0.0580
     13 N         137.8150  139.7392  162.1487 N.pl3   1  UNL1       -0.2801
     14 H         137.2967  139.0046  162.5498 H       1  UNL1        0.1552
     15 C         138.0912  140.9823  162.9414 C.ar    1  UNL1        0.2207
     16 N         137.0659  142.0754  163.0035 N.ar    1  UNL1       -0.2123
     17 C         137.3420  143.3185  163.7962 C.ar    1  UNL1        0.0990
     18 C         138.6434  143.4686  164.5268 C.ar    1  UNL1        0.0151
     19 C         138.9196  144.7117  165.3195 C.3     1  UNL1        0.0342
     20 C         139.6688  142.3754  164.4647 C.ar    1  UNL1        0.0832
     21 N         139.3926  141.1323  163.6720 N.ar    1  UNL1       -0.2138
     22 C         140.9702  142.5254  165.1953 C.ar    1  UNL1        0.0361
     23 C         142.2382  143.0936  164.6301 C.ar    1  UNL1        0.0774
     24 N         143.2837  143.0529  165.7049 N.ar    1  UNL1       -0.3240
     25 C         144.7021  143.5230  165.5734 C.3     1  UNL1        0.1305
     26 C         142.6620  142.4596  166.9343 C.ar    1  UNL1        0.0600
     27 C         143.2130  142.1741  168.2999 C.ar    1  UNL1        0.0172
     28 C         142.3343  141.5626  169.3504 C.ar    1  UNL1        0.0015
     29 C         140.9044  141.2366  169.0354 C.ar    1  UNL1        0.0001
     30 C         140.3533  141.5221  167.6699 C.ar    1  UNL1        0.0015
     31 C         141.2321  142.1336  166.6193 C.ar    1  UNL1        0.0187
     32 O         139.8381  137.6297  161.4722 O.3     1  UNL1       -0.4701
     33 C         141.0615  137.9830  162.2649 C.3     1  UNL1        0.2525
     34 N         139.8694  139.2436  156.5332 N.pl3   1  UNL1       -0.3033
     35 C         140.7625  139.7162  156.1150 C.3     1  UNL1        0.1123
     36 C         139.1330  138.3978  155.5370 C.3     1  UNL1        0.1082
     37 C         139.4167  136.9277  155.4462 C.3     1  UNL1        0.0938
     38 N         140.8071  136.4491  155.1501 N.3     1  UNL1       -0.2688
     39 C         141.7182  136.0504  156.2730 C.3     1  UNL1        0.0897
     40 C         141.2865  136.3692  153.7310 C.3     1  UNL1        0.0897
@<TRIPOS>BOND
     1    11    12    2
     2    12     7    1
     3     7     8    2
     4     7     9   am
     5     9     1    1
     6     1     2   ar
     7     2     3   ar
     8     3    13    1
     9    13    15    1
    10    15    16   ar
    11    16    17   ar
    12    17    18   ar
    13    18    19    1
    14    18    20   ar
    15    20    22    1
    16    22    23   ar
    17    23    24   ar
    18    24    25    1
    19    24    26   ar
    20    26    27   ar
    21    27    28   ar
    22    28    29   ar
    23    29    30   ar
    24    30    31   ar
    25    20    21   ar
    26     3     4   ar
    27     4    32    1
    28    32    33    1
    29     4     5   ar
    30     5     6   ar
    31     6    34    1
    32    34    35    1
    33    34    36    1
    34    36    37    1
    35    37    38    1
    36    38    39    1
    37    38    40    1
    38     6     1   ar
    39    21    15   ar
    40    31    22   ar
    41    31    26   ar
    42     9    10    1
    43    13    14    1
@<TRIPOS>MOLECULE
*****
 40 43 0 0 0
SMALL
GASTEIGER

@<TRIPOS>ATOM
      1 C         140.9327  143.6587  160.4552 C.ar    1  UNL1        0.0655
      2 C         139.8834  142.9029  161.2152 C.ar    1  UNL1        0.0337
      3 C         138.8511  142.1041  160.4760 C.ar    1  UNL1        0.0862
      4 C         138.8682  142.0612  158.9767 C.ar    1  UNL1        0.1534
      5 C         139.9176  142.8172  158.2166 C.ar    1  UNL1        0.0539
      6 C         140.9498  143.6159  158.9559 C.ar    1  UNL1        0.0647
      7 C         143.0169  143.7579  162.0031 C.2     1  UNL1        0.2497
      8 O         143.1382  142.6789  162.1327 O.2     1  UNL1       -0.2698
      9 N         141.9649  144.4575  161.1945 N.am    1  UNL1       -0.2794
     10 H         141.9520  145.4408  161.1490 H       1  UNL1        0.1552
     11 C         143.6922  145.2315  164.0336 C.2     1  UNL1        0.0048
     12 C         144.0492  144.5565  162.7425 C.2     1  UNL1        0.0580
     13 N         137.8019  141.3483  161.2360 N.pl3   1  UNL1       -0.2801
     14 H         136.8485  141.5385  161.0805 H       1  UNL1        0.1552
     15 C         138.2051  140.3025  162.2329 C.ar    1  UNL1        0.2207
     16 N         138.1180  138.8492  161.8721 N.ar    1  UNL1       -0.2123
     17 C         138.5212  137.8035  162.8690 C.ar    1  UNL1        0.0990
     18 C         139.0114  138.2111  164.2268 C.ar    1  UNL1        0.0151
     19 C         139.4146  137.1654  165.2237 C.3     1  UNL1        0.0342
     20 C         139.0985  139.6645  164.5877 C.ar    1  UNL1        0.0832
     21 N         138.6953  140.7101  163.5907 N.ar    1  UNL1       -0.2138
     22 C         139.5887  140.0721  165.9454 C.ar    1  UNL1        0.0361
     23 C         138.8998  139.8001  167.2498 C.ar    1  UNL1        0.0774
     24 N         139.7393  140.3832  168.3477 N.ar    1  UNL1       -0.3240
     25 C         139.4261  140.3412  169.8140 C.3     1  UNL1        0.1305
     26 C         140.9469  141.0156  167.7218 C.ar    1  UNL1        0.0600
     27 C         142.1192  141.7417  168.3121 C.ar    1  UNL1        0.0172
     28 C         143.1985  142.2755  167.4176 C.ar    1  UNL1        0.0015
     29 C         143.1054  142.0832  165.9329 C.ar    1  UNL1        0.0001
     30 C         141.9331  141.3572  165.3426 C.ar    1  UNL1        0.0015
     31 C         140.8538  140.8233  166.2371 C.ar    1  UNL1        0.0187
     32 O         137.8360  141.2625  158.2374 O.3     1  UNL1       -0.4701
     33 C         138.0512  140.9108  156.7951 C.3     1  UNL1        0.2525
     34 N         141.9991  144.3717  158.1959 N.pl3   1  UNL1       -0.3033
     35 C         142.9694  143.9943  157.8612 C.3     1  UNL1        0.1123
     36 C         141.7654  145.8043  157.8177 C.3     1  UNL1        0.1082
     37 C         140.4208  146.2369  157.3127 C.3     1  UNL1        0.0938
     38 N         140.1381  146.2392  155.8396 N.3     1  UNL1       -0.2688
     39 C         140.5824  145.0865  154.9889 C.3     1  UNL1        0.0897
     40 C         139.4110  147.3942  155.2173 C.3     1  UNL1        0.0897
@<TRIPOS>BOND
     1    11    12    2
     2    12     7    1
     3     7     8    2
     4     7     9   am
     5     9     1    1
     6     1     2   ar
     7     2     3   ar
     8     3    13    1
     9    13    15    1
    10    15    16   ar
    11    16    17   ar
    12    17    18   ar
    13    18    19    1
    14    18    20   ar
    15    20    22    1
    16    22    23   ar
    17    23    24   ar
    18    24    25    1
    19    24    26   ar
    20    26    27   ar
    21    27    28   ar
    22    28    29   ar
    23    29    30   ar
    24    30    31   ar
    25    20    21   ar
    26     3     4   ar
    27     4    32    1
    28    32    33    1
    29     4     5   ar
    30     5     6   ar
    31     6    34    1
    32    34    35    1
    33    34    36    1
    34    36    37    1
    35    37    38    1
    36    38    39    1
    37    38    40    1
    38     6     1   ar
    39    21    15   ar
    40    31    22   ar
    41    31    26   ar
    42     9    10    1
    43    13    14    1
@<TRIPOS>MOLECULE
*****
 40 43 0 0 0
SMALL
GASTEIGER

@<TRIPOS>ATOM
      1 C         140.8496  143.9408  160.4433 C.ar    1  UNL1        0.0655
      2 C         139.8393  143.1610  161.2315 C.ar    1  UNL1        0.0337
      3 C         138.7747  142.3790  160.5207 C.ar    1  UNL1        0.0862
      4 C         138.7204  142.3768  159.0217 C.ar    1  UNL1        0.1534
      5 C         139.7308  143.1566  158.2335 C.ar    1  UNL1        0.0539
      6 C         140.7953  143.9386  158.9443 C.ar    1  UNL1        0.0647
      7 C         142.8327  144.0336  162.1191 C.2     1  UNL1        0.2497
      8 O         142.8288  142.9740  162.3891 O.2     1  UNL1       -0.2698
      9 N         141.9142  144.7228  161.1541 N.am    1  UNL1       -0.2794
     10 H         142.0100  145.6883  160.9872 H       1  UNL1        0.1552
     11 C         143.7120  145.1992  164.2682 C.2     1  UNL1        0.0048
     12 C         143.8973  144.8155  162.8300 C.2     1  UNL1        0.0580
     13 N         137.7645  141.5993  161.3090 N.pl3   1  UNL1       -0.2801
     14 H         136.8049  141.7957  161.2101 H       1  UNL1        0.1552
     15 C         138.2163  140.5203  162.2480 C.ar    1  UNL1        0.2207
     16 N         138.2108  139.0879  161.8027 N.ar    1  UNL1       -0.2123
     17 C         138.6626  138.0090  162.7416 C.ar    1  UNL1        0.0990
     18 C         139.1198  138.3623  164.1259 C.ar    1  UNL1        0.0151
     19 C         139.5716  137.2834  165.0649 C.3     1  UNL1        0.0342
     20 C         139.1252  139.7948  164.5712 C.ar    1  UNL1        0.0832
     21 N         138.6734  140.8737  163.6322 N.ar    1  UNL1       -0.2138
     22 C         139.5824  140.1482  165.9554 C.ar    1  UNL1        0.0361
     23 C         138.8569  139.8350  167.2304 C.ar    1  UNL1        0.0774
     24 N         139.6715  140.3701  168.3706 N.ar    1  UNL1       -0.3240
     25 C         139.3191  140.2775  169.8257 C.3     1  UNL1        0.1305
     26 C         140.9004  141.0139  167.8003 C.ar    1  UNL1        0.0600
     27 C         142.0625  141.7073  168.4474 C.ar    1  UNL1        0.0172
     28 C         143.1695  142.2636  167.6018 C.ar    1  UNL1        0.0015
     29 C         143.1144  142.1264  166.1091 C.ar    1  UNL1        0.0001
     30 C         141.9523  141.4330  165.4620 C.ar    1  UNL1        0.0015
     31 C         140.8454  140.8768  166.3076 C.ar    1  UNL1        0.0187
     32 O         137.6559  141.5949  158.3109 O.3     1  UNL1       -0.4701
     33 C         137.2058  142.0128  156.9424 C.3     1  UNL1        0.2525
     34 N         141.8056  144.7183  158.1560 N.pl3   1  UNL1       -0.3033
     35 C         141.7908  145.7915  157.9463 C.3     1  UNL1        0.1123
     36 C         142.9920  144.0209  157.5594 C.3     1  UNL1        0.1082
     37 C         143.1263  142.5320  157.6815 C.3     1  UNL1        0.0938
     38 N         143.6522  141.9279  158.9498 N.3     1  UNL1       -0.2688
     39 C         144.9006  142.4721  159.5785 C.3     1  UNL1        0.0897
     40 C         142.9296  140.7796  159.5895 C.3     1  UNL1        0.0897
@<TRIPOS>BOND
     1    11    12    2
     2    12     7    1
     3     7     8    2
     4     7     9   am
     5     9     1    1
     6     1     2   ar
     7     2     3   ar
     8     3    13    1
     9    13    15    1
    10    15    16   ar
    11    16    17   ar
    12    17    18   ar
    13    18    19    1
    14    18    20   ar
    15    20    22    1
    16    22    23   ar
    17    23    24   ar
    18    24    25    1
    19    24    26   ar
    20    26    27   ar
    21    27    28   ar
    22    28    29   ar
    23    29    30   ar
    24    30    31   ar
    25    20    21   ar
    26     3     4   ar
    27     4    32    1
    28    32    33    1
    29     4     5   ar
    30     5     6   ar
    31     6    34    1
    32    34    35    1
    33    34    36    1
    34    36    37    1
    35    37    38    1
    36    38    39    1
    37    38    40    1
    38     6     1   ar
    39    21    15   ar
    40    31    22   ar
    41    31    26   ar
    42     9    10    1
    43    13    14    1
@<TRIPOS>MOLECULE
*****
 40 43 0 0 0
SMALL
GASTEIGER

@<TRIPOS>ATOM
      1 C         143.3744  139.8983  157.6738 C.ar    1  UNL1        0.0655
      2 C         144.1166  140.0282  158.9707 C.ar    1  UNL1        0.0337
      3 C         143.7555  139.1512  160.1328 C.ar    1  UNL1        0.0862
      4 C         142.6520  138.1441  159.9979 C.ar    1  UNL1        0.1534
      5 C         141.9097  138.0142  158.7008 C.ar    1  UNL1        0.0539
      6 C         142.2709  138.8912  157.5388 C.ar    1  UNL1        0.0647
      7 C         144.8796  140.4010  155.6168 C.2     1  UNL1        0.2497
      8 O         145.5232  139.5213  155.7043 O.2     1  UNL1       -0.2698
      9 N         143.7356  140.7753  156.5117 N.am    1  UNL1       -0.2794
     10 H         143.2218  141.5967  156.3365 H       1  UNL1        0.1552
     11 C         146.4488  140.9618  153.6234 C.2     1  UNL1        0.0048
     12 C         145.2409  141.2780  154.4547 C.2     1  UNL1        0.0580
     13 N         144.4978  139.2812  161.4297 N.pl3   1  UNL1       -0.2801
     14 H         145.0657  138.5427  161.7480 H       1  UNL1        0.1552
     15 C         144.3749  140.5364  162.2417 C.ar    1  UNL1        0.2207
     16 N         145.4950  140.9571  163.1463 N.ar    1  UNL1       -0.2123
     17 C         145.3721  142.2123  163.9583 C.ar    1  UNL1        0.0990
     18 C         144.1291  143.0468  163.8657 C.ar    1  UNL1        0.0151
     19 C         144.0062  144.3020  164.6777 C.3     1  UNL1        0.0342
     20 C         143.0089  142.6260  162.9611 C.ar    1  UNL1        0.0832
     21 N         143.1318  141.3708  162.1492 N.ar    1  UNL1       -0.2138
     22 C         141.7658  143.4604  162.8686 C.ar    1  UNL1        0.0361
     23 C         141.6157  144.7357  162.0933 C.ar    1  UNL1        0.0774
     24 N         140.2118  145.2295  162.2807 N.ar    1  UNL1       -0.3240
     25 C         139.6278  146.4748  161.6821 C.3     1  UNL1        0.1305
     26 C         139.4942  144.2594  163.1717 C.ar    1  UNL1        0.0600
     27 C         138.0903  144.2304  163.6992 C.ar    1  UNL1        0.0172
     28 C         137.6469  143.1080  164.5900 C.ar    1  UNL1        0.0015
     29 C         138.6074  142.0146  164.9534 C.ar    1  UNL1        0.0001
     30 C         140.0113  142.0436  164.4259 C.ar    1  UNL1        0.0015
     31 C         140.4547  143.1660  163.5351 C.ar    1  UNL1        0.0187
     32 O         142.2908  137.2671  161.1599 O.3     1  UNL1       -0.4701
     33 C         141.2830  137.7347  162.1677 C.3     1  UNL1        0.2525
     34 N         141.5286  138.7612  156.2419 N.pl3   1  UNL1       -0.3033
     35 C         140.5629  139.2076  155.9887 C.3     1  UNL1        0.1123
     36 C         142.1092  137.9474  155.1236 C.3     1  UNL1        0.1082
     37 C         143.0838  136.8474  155.4242 C.3     1  UNL1        0.0938
     38 N         142.5882  135.5205  155.9176 N.3     1  UNL1       -0.2688
     39 C         143.2701  134.8470  157.0715 C.3     1  UNL1        0.0897
     40 C         141.4106  134.8669  155.2572 C.3     1  UNL1        0.0897
@<TRIPOS>BOND
     1    11    12    2
     2    12     7    1
     3     7     8    2
     4     7     9   am
     5     9     1    1
     6     1     2   ar
     7     2     3   ar
     8     3    13    1
     9    13    15    1
    10    15    16   ar
    11    16    17   ar
    12    17    18   ar
    13    18    19    1
    14    18    20   ar
    15    20    22    1
    16    22    23   ar
    17    23    24   ar
    18    24    25    1
    19    24    26   ar
    20    26    27   ar
    21    27    28   ar
    22    28    29   ar
    23    29    30   ar
    24    30    31   ar
    25    20    21   ar
    26     3     4   ar
    27     4    32    1
    28    32    33    1
    29     4     5   ar
    30     5     6   ar
    31     6    34    1
    32    34    35    1
    33    34    36    1
    34    36    37    1
    35    37    38    1
    36    38    39    1
    37    38    40    1
    38     6     1   ar
    39    21    15   ar
    40    31    22   ar
    41    31    26   ar
    42     9    10    1
    43    13    14    1
@<TRIPOS>MOLECULE
*****
 40 43 0 0 0
SMALL
GASTEIGER

@<TRIPOS>ATOM
      1 C         142.9419  143.2444  159.4295 C.ar    1  UNL1        0.0655
      2 C         143.7966  142.9393  160.6239 C.ar    1  UNL1        0.0337
      3 C         143.4625  143.5383  161.9580 C.ar    1  UNL1        0.0862
      4 C         142.2736  144.4422  162.0977 C.ar    1  UNL1        0.1534
      5 C         141.4189  144.7473  160.9032 C.ar    1  UNL1        0.0539
      6 C         141.7531  144.1483  159.5692 C.ar    1  UNL1        0.0647
      7 C         143.0718  141.1782  157.8599 C.2     1  UNL1        0.2497
      8 O         142.6889  140.4440  158.5740 O.2     1  UNL1       -0.2698
      9 N         143.2761  142.6454  158.0955 N.am    1  UNL1       -0.2794
     10 H         143.6294  143.2153  157.3747 H       1  UNL1        0.1552
     11 C         144.8391  140.4211  156.1124 C.2     1  UNL1        0.0048
     12 C         143.4060  140.5792  156.5259 C.2     1  UNL1        0.0580
     13 N         144.3172  143.2332  163.1523 N.pl3   1  UNL1       -0.2801
     14 H         144.9949  143.8817  163.4511 H       1  UNL1        0.1552
     15 C         144.1393  141.9400  163.8913 C.ar    1  UNL1        0.2207
     16 N         145.2164  140.8970  163.8477 N.ar    1  UNL1       -0.2123
     17 C         145.0386  139.6039  164.5867 C.ar    1  UNL1        0.0990
     18 C         143.7836  139.3538  165.3693 C.ar    1  UNL1        0.0151
     19 C         143.6057  138.0606  166.1083 C.3     1  UNL1        0.0342
     20 C         142.7064  140.3968  165.4128 C.ar    1  UNL1        0.0832
     21 N         142.8843  141.6899  164.6738 N.ar    1  UNL1       -0.2138
     22 C         141.4514  140.1467  166.1954 C.ar    1  UNL1        0.0361
     23 C         140.2347  139.4212  165.7022 C.ar    1  UNL1        0.0774
     24 N         139.2241  139.4042  166.8106 N.ar    1  UNL1       -0.3240
     25 C         137.8607  138.7816  166.7512 C.3     1  UNL1        0.1305
     26 C         139.8162  140.1193  167.9888 C.ar    1  UNL1        0.0600
     27 C         139.2798  140.4119  169.3586 C.ar    1  UNL1        0.0172
     28 C         140.1200  141.1633  170.3483 C.ar    1  UNL1        0.0015
     29 C         141.4965  141.6221  169.9681 C.ar    1  UNL1        0.0001
     30 C         142.0329  141.3296  168.5982 C.ar    1  UNL1        0.0015
     31 C         141.1928  140.5782  167.6085 C.ar    1  UNL1        0.0187
     32 O         141.9395  145.0412  163.4317 O.3     1  UNL1       -0.4701
     33 C         140.6430  144.6988  164.1040 C.3     1  UNL1        0.2525
     34 N         140.8984  144.4534  158.3749 N.pl3   1  UNL1       -0.3033
     35 C         140.9401  145.3477  157.7470 C.3     1  UNL1        0.1123
     36 C         139.8512  143.4749  157.9324 C.3     1  UNL1        0.1082
     37 C         138.8764  142.9185  158.9274 C.3     1  UNL1        0.0938
     38 N         139.0108  141.5001  159.3965 N.3     1  UNL1       -0.2688
     39 C         139.9346  141.1696  160.5311 C.3     1  UNL1        0.0897
     40 C         138.2214  140.4120  158.7309 C.3     1  UNL1        0.0897
@<TRIPOS>BOND
     1    11    12    2
     2    12     7    1
     3     7     8    2
     4     7     9   am
     5     9     1    1
     6     1     2   ar
     7     2     3   ar
     8     3    13    1
     9    13    15    1
    10    15    16   ar
    11    16    17   ar
    12    17    18   ar
    13    18    19    1
    14    18    20   ar
    15    20    22    1
    16    22    23   ar
    17    23    24   ar
    18    24    25    1
    19    24    26   ar
    20    26    27   ar
    21    27    28   ar
    22    28    29   ar
    23    29    30   ar
    24    30    31   ar
    25    20    21   ar
    26     3     4   ar
    27     4    32    1
    28    32    33    1
    29     4     5   ar
    30     5     6   ar
    31     6    34    1
    32    34    35    1
    33    34    36    1
    34    36    37    1
    35    37    38    1
    36    38    39    1
    37    38    40    1
    38     6     1   ar
    39    21    15   ar
    40    31    22   ar
    41    31    26   ar
    42     9    10    1
    43    13    14    1
@<TRIPOS>MOLECULE
*****
 40 43 0 0 0
SMALL
GASTEIGER

@<TRIPOS>ATOM
      1 C         141.5616  137.8875  161.6653 C.ar    1  UNL1        0.0655
      2 C         142.5571  137.8680  160.5434 C.ar    1  UNL1        0.0337
      3 C         142.1287  138.2364  159.1539 C.ar    1  UNL1        0.0862
      4 C         140.7047  138.6242  158.8862 C.ar    1  UNL1        0.1534
      5 C         139.7090  138.6437  160.0081 C.ar    1  UNL1        0.0539
      6 C         140.1375  138.2753  161.3976 C.ar    1  UNL1        0.0647
      7 C         142.4244  138.5876  164.0137 C.2     1  UNL1        0.2497
      8 O         142.4729  139.6632  163.8227 O.2     1  UNL1       -0.2698
      9 N         141.9901  137.5191  163.0548 N.am    1  UNL1       -0.2794
     10 H         141.9862  136.5760  163.3373 H       1  UNL1        0.1552
     11 C         142.4668  139.0892  166.5626 C.2     1  UNL1        0.0048
     12 C         142.8529  138.2193  165.4032 C.2     1  UNL1        0.0580
     13 N         143.1243  138.2170  158.0322 N.pl3   1  UNL1       -0.2801
     14 H         143.9572  138.7369  158.1042 H       1  UNL1        0.1552
     15 C         142.8511  137.4053  156.8007 C.ar    1  UNL1        0.2207
     16 N         142.7056  138.0850  155.4715 N.ar    1  UNL1       -0.2123
     17 C         142.4324  137.2734  154.2400 C.ar    1  UNL1        0.0990
     18 C         142.3045  135.7820  154.3378 C.ar    1  UNL1        0.0151
     19 C         142.0312  134.9704  153.1063 C.3     1  UNL1        0.0342
     20 C         142.4499  135.1023  155.6671 C.ar    1  UNL1        0.0832
     21 N         142.7232  135.9140  156.8984 N.ar    1  UNL1       -0.2138
     22 C         142.3220  133.6109  155.7648 C.ar    1  UNL1        0.0361
     23 C         141.2613  132.7725  155.1152 C.ar    1  UNL1        0.0774
     24 N         141.5162  131.3396  155.4783 N.ar    1  UNL1       -0.3240
     25 C         140.6968  130.1608  155.0437 C.3     1  UNL1        0.1305
     26 C         142.7344  131.2925  156.3523 C.ar    1  UNL1        0.0600
     27 C         143.4544  130.1527  157.0097 C.ar    1  UNL1        0.0172
     28 C         144.6725  130.4166  157.8443 C.ar    1  UNL1        0.0015
     29 C         145.1705  131.8204  158.0214 C.ar    1  UNL1        0.0001
     30 C         144.4505  132.9602  157.3639 C.ar    1  UNL1        0.0015
     31 C         143.2324  132.6962  156.5294 C.ar    1  UNL1        0.0187
     32 O         140.2762  138.9926  157.4967 O.3     1  UNL1       -0.4701
     33 C         140.3613  140.4185  157.0388 C.3     1  UNL1        0.2525
     34 N         139.1419  138.2947  162.5193 N.pl3   1  UNL1       -0.3033
     35 C         138.8683  137.4602  163.1710 C.3     1  UNL1        0.1123
     36 C         138.4013  139.5583  162.8429 C.3     1  UNL1        0.1082
     37 C         139.1020  140.6768  163.5556 C.3     1  UNL1        0.0938
     38 N         139.1417  140.7024  165.0549 N.3     1  UNL1       -0.2688
     39 C         138.3305  139.7176  165.8436 C.3     1  UNL1        0.0897
     40 C         139.9927  141.7128  165.7655 C.3     1  UNL1        0.0897
@<TRIPOS>BOND
     1    11    12    2
     2    12     7    1
     3     7     8    2
     4     7     9   am
     5     9     1    1
     6     1     2   ar
     7     2     3   ar
     8     3    13    1
     9    13    15    1
    10    15    16   ar
    11    16    17   ar
    12    17    18   ar
    13    18    19    1
    14    18    20   ar
    15    20    22    1
    16    22    23   ar
    17    23    24   ar
    18    24    25    1
    19    24    26   ar
    20    26    27   ar
    21    27    28   ar
    22    28    29   ar
    23    29    30   ar
    24    30    31   ar
    25    20    21   ar
    26     3     4   ar
    27     4    32    1
    28    32    33    1
    29     4     5   ar
    30     5     6   ar
    31     6    34    1
    32    34    35    1
    33    34    36    1
    34    36    37    1
    35    37    38    1
    36    38    39    1
    37    38    40    1
    38     6     1   ar
    39    21    15   ar
    40    31    22   ar
    41    31    26   ar
    42     9    10    1
    43    13    14    1
@<TRIPOS>MOLECULE
*****
 40 43 0 0 0
SMALL
GASTEIGER

@<TRIPOS>ATOM
      1 C         139.6031  138.6839  158.2929 C.ar    1  UNL1        0.0655
      2 C         139.4038  138.0141  159.6202 C.ar    1  UNL1        0.0337
      3 C         138.5941  138.6894  160.6871 C.ar    1  UNL1        0.0862
      4 C         137.9836  140.0346  160.4267 C.ar    1  UNL1        0.1534
      5 C         138.1828  140.7044  159.0994 C.ar    1  UNL1        0.0539
      6 C         138.9925  140.0290  158.0325 C.ar    1  UNL1        0.0647
      7 C         139.7294  137.1892  156.1717 C.2     1  UNL1        0.2497
      8 O         138.6557  137.0083  156.0719 O.2     1  UNL1       -0.2698
      9 N         140.4128  138.0085  157.2260 N.am    1  UNL1       -0.2794
     10 H         141.3927  138.1030  157.2178 H       1  UNL1        0.1552
     11 C         141.3903  135.3271  155.4474 C.2     1  UNL1        0.0048
     12 C         140.5391  136.5138  155.1048 C.2     1  UNL1        0.0580
     13 N         138.3949  138.0195  162.0144 N.pl3   1  UNL1       -0.2801
     14 H         137.7847  137.2508  162.0911 H       1  UNL1        0.1552
     15 C         139.1254  138.5209  163.2247 C.ar    1  UNL1        0.2207
     16 N         138.6757  138.1106  164.5956 N.ar    1  UNL1       -0.2123
     17 C         139.4062  138.6120  165.8060 C.ar    1  UNL1        0.0990
     18 C         140.5864  139.5237  165.6454 C.ar    1  UNL1        0.0151
     19 C         141.3169  140.0251  166.8558 C.3     1  UNL1        0.0342
     20 C         141.0362  139.9341  164.2745 C.ar    1  UNL1        0.0832
     21 N         140.3057  139.4327  163.0642 N.ar    1  UNL1       -0.2138
     22 C         142.2164  140.8458  164.1139 C.ar    1  UNL1        0.0361
     23 C         143.6497  140.4199  163.9940 C.ar    1  UNL1        0.0774
     24 N         144.4896  141.6544  163.8511 N.ar    1  UNL1       -0.3240
     25 C         145.9818  141.6933  163.7027 C.3     1  UNL1        0.1305
     26 C         143.5755  142.8433  163.8828 C.ar    1  UNL1        0.0600
     27 C         143.8409  144.3163  163.7846 C.ar    1  UNL1        0.0172
     28 C         142.7014  145.2896  163.8489 C.ar    1  UNL1        0.0015
     29 C         141.2965  144.7898  164.0114 C.ar    1  UNL1        0.0001
     30 C         141.0311  143.3168  164.1095 C.ar    1  UNL1        0.0015
     31 C         142.1706  142.3435  164.0452 C.ar    1  UNL1        0.0187
     32 O         137.1738  140.7099  161.4936 O.3     1  UNL1       -0.4701
     33 C         137.7619  141.8480  162.2739 C.3     1  UNL1        0.2525
     34 N         139.1917  140.6989  156.7053 N.pl3   1  UNL1       -0.3033
     35 C         138.4796  140.7421  155.8765 C.3     1  UNL1        0.1123
     36 C         140.4804  141.4066  156.4082 C.3     1  UNL1        0.1082
     37 C         141.0191  142.4204  157.3736 C.3     1  UNL1        0.0938
     38 N         140.1903  143.6129  157.7490 N.3     1  UNL1       -0.2688
     39 C         139.9908  143.9628  159.1939 C.3     1  UNL1        0.0897
     40 C         139.5610  144.4557  156.6796 C.3     1  UNL1        0.0897
@<TRIPOS>BOND
     1    11    12    2
     2    12     7    1
     3     7     8    2
     4     7     9   am
     5     9     1    1
     6     1     2   ar
     7     2     3   ar
     8     3    13    1
     9    13    15    1
    10    15    16   ar
    11    16    17   ar
    12    17    18   ar
    13    18    19    1
    14    18    20   ar
    15    20    22    1
    16    22    23   ar
    17    23    24   ar
    18    24    25    1
    19    24    26   ar
    20    26    27   ar
    21    27    28   ar
    22    28    29   ar
    23    29    30   ar
    24    30    31   ar
    25    20    21   ar
    26     3     4   ar
    27     4    32    1
    28    32    33    1
    29     4     5   ar
    30     5     6   ar
    31     6    34    1
    32    34    35    1
    33    34    36    1
    34    36    37    1
    35    37    38    1
    36    38    39    1
    37    38    40    1
    38     6     1   ar
    39    21    15   ar
    40    31    22   ar
    41    31    26   ar
    42     9    10    1
    43    13    14    1
