@<TRIPOS>MOLECULE
*****
 22 24 0 0 0
SMALL
GASTEIGER

@<TRIPOS>ATOM
      1 N         139.6267  142.6934  165.7708 N.ar    1  UNL1       -0.2076
      2 C         138.9902  141.5335  165.0640 C.ar    1  UNL1        0.1378
      3 C         137.9318  142.0729  164.1480 C.ar    1  UNL1        0.1713
      4 N         137.9143  143.5662  164.2887 N.ar    1  UNL1       -0.1135
      5 N         138.9617  143.9496  165.2916 N.ar    1  UNL1       -0.0583
      6 CL        144.0550  142.3655  169.8060 Cl      1  UNL1       -0.0822
      7 C         142.9479  142.4475  168.7972 C.ar    1  UNL1        0.0578
      8 C         143.2416  142.2318  167.3421 C.ar    1  UNL1        0.0129
      9 C         142.1345  142.3138  166.3333 C.ar    1  UNL1        0.0201
     10 C         140.7338  142.6114  166.7796 C.ar    1  UNL1        0.0846
     11 C         140.4400  142.8270  168.2346 C.ar    1  UNL1        0.0201
     12 C         141.5471  142.7451  169.2434 C.ar    1  UNL1        0.0129
     13 N         137.0466  141.2614  163.2493 N.pl3   1  UNL1       -0.3142
     14 H         136.0896  141.1635  163.4587 H       1  UNL1        0.1483
     15 C         137.6193  140.5993  162.0313 C.3     1  UNL1        0.1058
     16 C         137.7806  139.1084  161.9941 C.3     1  UNL1        0.0936
     17 N         138.9259  138.4598  162.7138 N.3     1  UNL1       -0.2712
     18 C         140.2071  138.1798  161.9859 C.3     1  UNL1        0.0721
     19 C         141.3522  137.5311  162.7057 C.3     1  UNL1        0.0174
     20 C         141.2161  137.1626  164.1533 C.3     1  UNL1        0.0029
     21 C         139.9348  137.4427  164.8812 C.3     1  UNL1        0.0174
     22 C         138.7897  138.0913  164.1615 C.3     1  UNL1        0.0721
@<TRIPOS>BOND
     1     6     7    1
     2     7     8   ar
     3     8     9   ar
     4     9    10   ar
     5    10     1    1
     6     1     2   ar
     7     2     3   ar
     8     3    13    1
     9    13    15    1
    10    15    16    1
    11    16    17    1
    12    17    18    1
    13    18    19    1
    14    19    20    1
    15    20    21    1
    16    21    22    1
    17     3     4   ar
    18     4     5   ar
    19    10    11   ar
    20    11    12   ar
    21    12     7   ar
    22     5     1   ar
    23    22    17    1
    24    13    14    1
@<TRIPOS>MOLECULE
*****
 22 24 0 0 0
SMALL
GASTEIGER

@<TRIPOS>ATOM
      1 N         143.4518  142.3676  164.8158 N.ar    1  UNL1       -0.2076
      2 C         142.5208  143.3671  164.1960 C.ar    1  UNL1        0.1378
      3 C         143.1962  143.9418  162.9863 C.ar    1  UNL1        0.1713
      4 N         144.5448  143.2975  162.8584 N.ar    1  UNL1       -0.1135
      5 N         144.7027  142.3246  163.9891 N.ar    1  UNL1       -0.0583
      6 CL        142.3636  139.1131  169.7376 Cl      1  UNL1       -0.0822
      7 C         142.6357  139.9267  168.5072 C.ar    1  UNL1        0.0578
      8 C         142.7657  139.2506  167.1745 C.ar    1  UNL1        0.0129
      9 C         143.0377  140.0642  165.9441 C.ar    1  UNL1        0.0201
     10 C         143.1798  141.5539  166.0463 C.ar    1  UNL1        0.0846
     11 C         143.0498  142.2300  167.3789 C.ar    1  UNL1        0.0201
     12 C         142.7777  141.4164  168.6093 C.ar    1  UNL1        0.0129
     13 N         142.6237  144.9788  162.0660 N.pl3   1  UNL1       -0.3142
     14 H         142.9111  145.9173  162.1424 H       1  UNL1        0.1483
     15 C         141.6132  144.5858  161.0295 C.3     1  UNL1        0.1058
     16 C         140.1812  145.0060  161.1809 C.3     1  UNL1        0.0936
     17 N         139.3421  144.4271  162.2814 N.3     1  UNL1       -0.2712
     18 C         139.3636  145.0479  163.6466 C.3     1  UNL1        0.0721
     19 C         138.5244  144.4690  164.7470 C.3     1  UNL1        0.0174
     20 C         137.6639  143.2694  164.4821 C.3     1  UNL1        0.0029
     21 C         137.6424  142.6486  163.1167 C.3     1  UNL1        0.0174
     22 C         138.4815  143.2275  162.0163 C.3     1  UNL1        0.0721
@<TRIPOS>BOND
     1     6     7    1
     2     7     8   ar
     3     8     9   ar
     4     9    10   ar
     5    10     1    1
     6     1     2   ar
     7     2     3   ar
     8     3    13    1
     9    13    15    1
    10    15    16    1
    11    16    17    1
    12    17    18    1
    13    18    19    1
    14    19    20    1
    15    20    21    1
    16    21    22    1
    17     3     4   ar
    18     4     5   ar
    19    10    11   ar
    20    11    12   ar
    21    12     7   ar
    22     5     1   ar
    23    22    17    1
    24    13    14    1
@<TRIPOS>MOLECULE
*****
 22 24 0 0 0
SMALL
GASTEIGER

@<TRIPOS>ATOM
      1 N         138.6477  139.5414  167.2218 N.ar    1  UNL1       -0.2076
      2 C         139.5692  140.5225  167.8839 C.ar    1  UNL1        0.1378
      3 C         139.2746  140.5154  169.3547 C.ar    1  UNL1        0.1713
      4 N         138.1710  139.5300  169.6016 N.ar    1  UNL1       -0.1135
      5 N         137.7836  138.9280  168.2834 N.ar    1  UNL1       -0.0583
      6 CL        138.4528  138.2903  161.3570 Cl      1  UNL1       -0.0822
      7 C         138.5015  138.6031  162.8232 C.ar    1  UNL1        0.0578
      8 C         138.9394  137.5524  163.8000 C.ar    1  UNL1        0.0129
      9 C         138.9881  137.8652  165.2662 C.ar    1  UNL1        0.0201
     10 C         138.5990  139.2286  165.7556 C.ar    1  UNL1        0.0846
     11 C         138.1611  140.2793  164.7788 C.ar    1  UNL1        0.0201
     12 C         138.1124  139.9665  163.3125 C.ar    1  UNL1        0.0129
     13 N         139.9627  141.3477  170.3957 N.pl3   1  UNL1       -0.3142
     14 H         139.6355  142.2543  170.5965 H       1  UNL1        0.1483
     15 C         141.1493  140.7987  171.1309 C.3     1  UNL1        0.1058
     16 C         142.5201  140.9105  170.5321 C.3     1  UNL1        0.0936
     17 N         142.7020  140.7927  169.0478 N.3     1  UNL1       -0.2712
     18 C         142.8464  142.0280  168.2095 C.3     1  UNL1        0.0721
     19 C         143.0283  141.9101  166.7251 C.3     1  UNL1        0.0174
     20 C         143.0658  140.5569  166.0793 C.3     1  UNL1        0.0029
     21 C         142.9214  139.3214  166.9177 C.3     1  UNL1        0.0174
     22 C         142.7395  139.4393  168.4019 C.3     1  UNL1        0.0721
@<TRIPOS>BOND
     1     6     7    1
     2     7     8   ar
     3     8     9   ar
     4     9    10   ar
     5    10     1    1
     6     1     2   ar
     7     2     3   ar
     8     3    13    1
     9    13    15    1
    10    15    16    1
    11    16    17    1
    12    17    18    1
    13    18    19    1
    14    19    20    1
    15    20    21    1
    16    21    22    1
    17     3     4   ar
    18     4     5   ar
    19    10    11   ar
    20    11    12   ar
    21    12     7   ar
    22     5     1   ar
    23    22    17    1
    24    13    14    1
@<TRIPOS>MOLECULE
*****
 22 24 0 0 0
SMALL
GASTEIGER

@<TRIPOS>ATOM
      1 N         143.3747  142.8172  163.5163 N.ar    1  UNL1       -0.2076
      2 C         142.4918  143.0294  162.3224 C.ar    1  UNL1        0.1378
      3 C         142.6717  144.4444  161.8584 C.ar    1  UNL1        0.1713
      4 N         143.6659  145.1068  162.7656 N.ar    1  UNL1       -0.1135
      5 N         144.1003  144.1011  163.7902 N.ar    1  UNL1       -0.0583
      6 CL        143.9099  137.7265  166.6466 Cl      1  UNL1       -0.0822
      7 C         143.7761  138.9992  165.8640 C.ar    1  UNL1        0.0578
      8 C         142.7342  140.0084  166.2459 C.ar    1  UNL1        0.0129
      9 C         142.6004  141.2811  165.4633 C.ar    1  UNL1        0.0201
     10 C         143.5085  141.5445  164.2989 C.ar    1  UNL1        0.0846
     11 C         144.5503  140.5352  163.9170 C.ar    1  UNL1        0.0201
     12 C         144.6841  139.2626  164.6995 C.ar    1  UNL1        0.0129
     13 N         141.9792  145.0847  160.6921 N.pl3   1  UNL1       -0.3142
     14 H         142.4918  145.3258  159.8869 H       1  UNL1        0.1483
     15 C         140.5054  145.3576  160.7524 C.3     1  UNL1        0.1058
     16 C         139.8723  145.7744  162.0468 C.3     1  UNL1        0.0936
     17 N         139.3147  144.7380  162.9770 N.3     1  UNL1       -0.2712
     18 C         139.8466  144.6205  164.3744 C.3     1  UNL1        0.0721
     19 C         139.2889  143.5841  165.3045 C.3     1  UNL1        0.0174
     20 C         138.1993  142.6653  164.8370 C.3     1  UNL1        0.0029
     21 C         137.6674  142.7829  163.4394 C.3     1  UNL1        0.0174
     22 C         138.2251  143.8192  162.5094 C.3     1  UNL1        0.0721
@<TRIPOS>BOND
     1     6     7    1
     2     7     8   ar
     3     8     9   ar
     4     9    10   ar
     5    10     1    1
     6     1     2   ar
     7     2     3   ar
     8     3    13    1
     9    13    15    1
    10    15    16    1
    11    16    17    1
    12    17    18    1
    13    18    19    1
    14    19    20    1
    15    20    21    1
    16    21    22    1
    17     3     4   ar
    18     4     5   ar
    19    10    11   ar
    20    11    12   ar
    21    12     7   ar
    22     5     1   ar
    23    22    17    1
    24    13    14    1
@<TRIPOS>MOLECULE
*****
 22 24 0 0 0
SMALL
GASTEIGER

@<TRIPOS>ATOM
      1 N         143.5030  141.9989  165.7663 N.ar    1  UNL1       -0.2076
      2 C         143.5391  140.7115  164.9974 C.ar    1  UNL1        0.1378
      3 C         144.5708  140.8456  163.9168 C.ar    1  UNL1        0.1713
      4 N         145.1724  142.2160  164.0179 N.ar    1  UNL1       -0.1135
      5 N         144.5125  142.9287  165.1610 N.ar    1  UNL1       -0.0583
      6 CL        139.9458  143.2156  170.4424 Cl      1  UNL1       -0.0822
      7 C         140.8351  142.9114  169.2734 C.ar    1  UNL1        0.0578
      8 C         142.2950  142.6449  169.4910 C.ar    1  UNL1        0.0129
      9 C         143.1844  142.3407  168.3220 C.ar    1  UNL1        0.0201
     10 C         142.6137  142.3031  166.9353 C.ar    1  UNL1        0.0846
     11 C         141.1538  142.5696  166.7177 C.ar    1  UNL1        0.0201
     12 C         140.2644  142.8738  167.8867 C.ar    1  UNL1        0.0129
     13 N         144.9366  139.7940  162.9116 N.pl3   1  UNL1       -0.3142
     14 H         145.8419  139.4072  162.9113 H       1  UNL1        0.1483
     15 C         143.9231  139.3320  161.9070 C.3     1  UNL1        0.1058
     16 C         143.2659  137.9931  162.0662 C.3     1  UNL1        0.0936
     17 N         141.8547  137.9051  162.5673 N.3     1  UNL1       -0.2712
     18 C         140.7086  138.0687  161.6136 C.3     1  UNL1        0.0721
     19 C         139.2975  137.9808  162.1148 C.3     1  UNL1        0.0174
     20 C         139.0325  137.7293  163.5695 C.3     1  UNL1        0.0029
     21 C         140.1787  137.5656  164.5232 C.3     1  UNL1        0.0174
     22 C         141.5898  137.6536  164.0221 C.3     1  UNL1        0.0721
@<TRIPOS>BOND
     1     6     7    1
     2     7     8   ar
     3     8     9   ar
     4     9    10   ar
     5    10     1    1
     6     1     2   ar
     7     2     3   ar
     8     3    13    1
     9    13    15    1
    10    15    16    1
    11    16    17    1
    12    17    18    1
    13    18    19    1
    14    19    20    1
    15    20    21    1
    16    21    22    1
    17     3     4   ar
    18     4     5   ar
    19    10    11   ar
    20    11    12   ar
    21    12     7   ar
    22     5     1   ar
    23    22    17    1
    24    13    14    1
@<TRIPOS>MOLECULE
*****
 22 24 0 0 0
SMALL
GASTEIGER

@<TRIPOS>ATOM
      1 N         139.0785  140.0129  165.6652 N.ar    1  UNL1       -0.2076
      2 C         138.3216  140.7641  164.6103 C.ar    1  UNL1        0.1378
      3 C         138.1122  139.8427  163.4453 C.ar    1  UNL1        0.1713
      4 N         138.7396  138.5220  163.7802 N.ar    1  UNL1       -0.1135
      5 N         139.3368  138.6272  165.1522 N.ar    1  UNL1       -0.0583
      6 CL        140.7748  142.1718  171.0001 Cl      1  UNL1       -0.0822
      7 C         140.3508  141.6320  169.6664 C.ar    1  UNL1        0.0578
      8 C         140.7266  142.3589  168.4093 C.ar    1  UNL1        0.0129
      9 C         140.3025  141.8191  167.0755 C.ar    1  UNL1        0.0201
     10 C         139.5026  140.5526  166.9989 C.ar    1  UNL1        0.0846
     11 C         139.1267  139.8258  168.2561 C.ar    1  UNL1        0.0201
     12 C         139.5508  140.3655  169.5898 C.ar    1  UNL1        0.0129
     13 N         137.4003  140.1823  162.1694 N.pl3   1  UNL1       -0.3142
     14 H         136.4696  139.8919  162.0326 H       1  UNL1        0.1483
     15 C         138.1065  140.9645  161.1020 C.3     1  UNL1        0.1058
     16 C         138.1130  142.4637  161.1510 C.3     1  UNL1        0.0936
     17 N         138.7970  143.1741  162.2814 N.3     1  UNL1       -0.2712
     18 C         140.2766  143.0235  162.4760 C.3     1  UNL1        0.0721
     19 C         140.9605  143.7339  163.6064 C.3     1  UNL1        0.0174
     20 C         140.1648  144.5949  164.5420 C.3     1  UNL1        0.0029
     21 C         138.6851  144.7454  164.3474 C.3     1  UNL1        0.0174
     22 C         138.0012  144.0351  163.2170 C.3     1  UNL1        0.0721
@<TRIPOS>BOND
     1     6     7    1
     2     7     8   ar
     3     8     9   ar
     4     9    10   ar
     5    10     1    1
     6     1     2   ar
     7     2     3   ar
     8     3    13    1
     9    13    15    1
    10    15    16    1
    11    16    17    1
    12    17    18    1
    13    18    19    1
    14    19    20    1
    15    20    21    1
    16    21    22    1
    17     3     4   ar
    18     4     5   ar
    19    10    11   ar
    20    11    12   ar
    21    12     7   ar
    22     5     1   ar
    23    22    17    1
    24    13    14    1
@<TRIPOS>MOLECULE
*****
 22 24 0 0 0
SMALL
GASTEIGER

@<TRIPOS>ATOM
      1 N         139.5912  139.2849  165.3422 N.ar    1  UNL1       -0.2076
      2 C         138.8539  140.3115  164.5345 C.ar    1  UNL1        0.1378
      3 C         138.2404  139.6192  163.3537 C.ar    1  UNL1        0.1713
      4 N         138.5986  138.1647  163.4316 N.ar    1  UNL1       -0.1135
      5 N         139.4334  137.9581  164.6605 N.ar    1  UNL1       -0.0583
      6 CL        142.6370  140.3063  170.4097 Cl      1  UNL1       -0.0822
      7 C         141.8756  140.0510  169.1428 C.ar    1  UNL1        0.0578
      8 C         140.3851  140.2175  169.1171 C.ar    1  UNL1        0.0129
      9 C         139.6237  139.9621  167.8502 C.ar    1  UNL1        0.0201
     10 C         140.3527  139.5402  166.6091 C.ar    1  UNL1        0.0846
     11 C         141.8431  139.3737  166.6348 C.ar    1  UNL1        0.0201
     12 C         142.6046  139.6291  167.9017 C.ar    1  UNL1        0.0129
     13 N         137.4138  140.2676  162.2830 N.pl3   1  UNL1       -0.3142
     14 H         136.4331  140.1820  162.2986 H       1  UNL1        0.1483
     15 C         138.0814  141.0464  161.1886 C.3     1  UNL1        0.1058
     16 C         138.1174  142.5447  161.2489 C.3     1  UNL1        0.0936
     17 N         138.6568  143.2335  162.4675 N.3     1  UNL1       -0.2712
     18 C         137.7145  143.8279  163.4717 C.3     1  UNL1        0.0721
     19 C         138.2539  144.5166  164.6903 C.3     1  UNL1        0.0174
     20 C         139.7354  144.6109  164.9045 C.3     1  UNL1        0.0029
     21 C         140.6777  144.0164  163.9002 C.3     1  UNL1        0.0174
     22 C         140.1384  143.3277  162.6817 C.3     1  UNL1        0.0721
@<TRIPOS>BOND
     1     6     7    1
     2     7     8   ar
     3     8     9   ar
     4     9    10   ar
     5    10     1    1
     6     1     2   ar
     7     2     3   ar
     8     3    13    1
     9    13    15    1
    10    15    16    1
    11    16    17    1
    12    17    18    1
    13    18    19    1
    14    19    20    1
    15    20    21    1
    16    21    22    1
    17     3     4   ar
    18     4     5   ar
    19    10    11   ar
    20    11    12   ar
    21    12     7   ar
    22     5     1   ar
    23    22    17    1
    24    13    14    1
@<TRIPOS>MOLECULE
*****
 22 24 0 0 0
SMALL
GASTEIGER

@<TRIPOS>ATOM
      1 N         138.9310  142.7743  164.1919 N.ar    1  UNL1       -0.2076
      2 C         139.4996  142.5450  162.8229 C.ar    1  UNL1        0.1378
      3 C         138.8053  143.4734  161.8711 C.ar    1  UNL1        0.1713
      4 N         137.8076  144.2766  162.6518 N.ar    1  UNL1       -0.1135
      5 N         137.8853  143.8445  164.0861 N.ar    1  UNL1       -0.0583
      6 CL        140.5545  139.9134  169.2098 Cl      1  UNL1       -0.0822
      7 C         140.1486  140.6286  167.9553 C.ar    1  UNL1        0.0578
      8 C         139.3034  139.9286  166.9329 C.ar    1  UNL1        0.0129
      9 C         138.8975  140.6438  165.6784 C.ar    1  UNL1        0.0201
     10 C         139.3369  142.0591  165.4464 C.ar    1  UNL1        0.0846
     11 C         140.1821  142.7591  166.4688 C.ar    1  UNL1        0.0201
     12 C         140.5880  142.0439  167.7233 C.ar    1  UNL1        0.0129
     13 N         139.0634  143.5800  160.3973 N.pl3   1  UNL1       -0.3142
     14 H         138.3111  143.6954  159.7729 H       1  UNL1        0.1483
     15 C         140.4678  143.5107  159.8750 C.3     1  UNL1        0.1058
     16 C         141.4547  144.5821  160.2327 C.3     1  UNL1        0.0936
     17 N         142.3003  144.4421  161.4639 N.3     1  UNL1       -0.2712
     18 C         141.9444  145.2002  162.7083 C.3     1  UNL1        0.0721
     19 C         142.7900  145.0601  163.9394 C.3     1  UNL1        0.0174
     20 C         143.9912  144.1620  163.9260 C.3     1  UNL1        0.0029
     21 C         144.3470  143.4039  162.6816 C.3     1  UNL1        0.0174
     22 C         143.5015  143.5439  161.4505 C.3     1  UNL1        0.0721
@<TRIPOS>BOND
     1     6     7    1
     2     7     8   ar
     3     8     9   ar
     4     9    10   ar
     5    10     1    1
     6     1     2   ar
     7     2     3   ar
     8     3    13    1
     9    13    15    1
    10    15    16    1
    11    16    17    1
    12    17    18    1
    13    18    19    1
    14    19    20    1
    15    20    21    1
    16    21    22    1
    17     3     4   ar
    18     4     5   ar
    19    10    11   ar
    20    11    12   ar
    21    12     7   ar
    22     5     1   ar
    23    22    17    1
    24    13    14    1
@<TRIPOS>MOLECULE
*****
 22 24 0 0 0
SMALL
GASTEIGER

@<TRIPOS>ATOM
      1 N         140.1562  140.0152  166.7527 N.ar    1  UNL1       -0.2076
      2 C         140.1679  139.9013  165.2571 C.ar    1  UNL1        0.1378
      3 C         138.9015  139.2176  164.8342 C.ar    1  UNL1        0.1713
      4 N         138.1070  138.9089  166.0685 N.ar    1  UNL1       -0.1135
      5 N         138.8825  139.4018  167.2542 N.ar    1  UNL1       -0.0583
      6 CL        144.4499  142.4896  170.1351 Cl      1  UNL1       -0.0822
      7 C         143.3765  141.8710  169.2895 C.ar    1  UNL1        0.0578
      8 C         142.5736  140.7203  169.8200 C.ar    1  UNL1        0.0129
      9 C         141.5002  140.1018  168.9744 C.ar    1  UNL1        0.0201
     10 C         141.2296  140.6338  167.5983 C.ar    1  UNL1        0.0846
     11 C         142.0325  141.7844  167.0678 C.ar    1  UNL1        0.0201
     12 C         143.1059  142.4030  167.9134 C.ar    1  UNL1        0.0129
     13 N         138.5001  138.8986  163.4246 N.pl3   1  UNL1       -0.3142
     14 H         138.6400  137.9925  163.0660 H       1  UNL1        0.1483
     15 C         137.8854  139.9602  162.5614 C.3     1  UNL1        0.1058
     16 C         138.7079  141.1318  162.1133 C.3     1  UNL1        0.0936
     17 N         138.8659  142.3240  163.0100 N.3     1  UNL1       -0.2712
     18 C         140.2160  142.9513  163.1928 C.3     1  UNL1        0.0721
     19 C         140.3739  144.1435  164.0894 C.3     1  UNL1        0.0174
     20 C         139.1817  144.7082  164.8032 C.3     1  UNL1        0.0029
     21 C         137.8315  144.0809  164.6204 C.3     1  UNL1        0.0174
     22 C         137.6736  142.8888  163.7238 C.3     1  UNL1        0.0721
@<TRIPOS>BOND
     1     6     7    1
     2     7     8   ar
     3     8     9   ar
     4     9    10   ar
     5    10     1    1
     6     1     2   ar
     7     2     3   ar
     8     3    13    1
     9    13    15    1
    10    15    16    1
    11    16    17    1
    12    17    18    1
    13    18    19    1
    14    19    20    1
    15    20    21    1
    16    21    22    1
    17     3     4   ar
    18     4     5   ar
    19    10    11   ar
    20    11    12   ar
    21    12     7   ar
    22     5     1   ar
    23    22    17    1
    24    13    14    1
