@<TRIPOS>MOLECULE
*****
 31 33 0 0 0
SMALL
GASTEIGER

@<TRIPOS>ATOM
      1 N         142.9641  141.0795  166.4633 N.pl3   1  UNL1       -0.2149
      2 H         143.4617  140.2328  166.5314 H       1  UNL1        0.1737
      3 C         142.3827  141.7090  167.6944 C.ar    1  UNL1        0.0678
      4 C         143.2894  142.2698  168.7496 C.ar    1  UNL1        0.0160
      5 C         142.7080  142.8993  169.9808 C.ar    1  UNL1        0.0013
      6 C         141.2200  142.9679  170.1568 C.ar    1  UNL1        0.0002
      7 C         140.3133  142.4070  169.1016 C.ar    1  UNL1        0.0045
      8 C         140.8946  141.7776  167.8705 C.ar    1  UNL1        0.0535
      9 C         139.9880  141.2167  166.8153 C.2     1  UNL1        0.1968
     10 O         139.7050  139.7441  166.7750 O.2     1  UNL1       -0.2865
     11 C         139.3642  142.1283  165.8005 C.ar    1  UNL1        0.0391
     12 C         138.3762  141.5850  164.8111 C.ar    1  UNL1        0.0055
     13 C         137.7525  142.4966  163.7963 C.ar    1  UNL1        0.0297
     14 C         138.1167  143.9515  163.7708 C.ar    1  UNL1        0.1401
     15 F         137.4929  144.8631  162.7560 F       1  UNL1       -0.2042
     16 C         139.1046  144.4948  164.7601 C.ar    1  UNL1        0.0297
     17 C         139.7284  143.5832  165.7750 C.ar    1  UNL1        0.0055
     18 S         142.7873  141.7402  165.1283 S.O2    1  UNL1        0.0736
     19 O         143.2725  143.0367  165.7057 O.2     1  UNL1       -0.1499
     20 O         142.3020  140.4436  164.5509 O.2     1  UNL1       -0.1499
     21 C         142.2568  143.7223  161.1232 C.ar    1  UNL1        0.0504
     22 C         141.5837  142.4121  161.4067 C.ar    1  UNL1        0.0160
     23 C         141.7605  141.7514  162.7417 C.ar    1  UNL1        0.0215
     24 C         142.6105  142.4009  163.7933 C.ar    1  UNL1        0.1253
     25 C         143.2836  143.7110  163.5098 C.ar    1  UNL1        0.0215
     26 C         143.1068  144.3718  162.1748 C.ar    1  UNL1        0.0160
     27 C         140.6452  145.8034  158.1533 C.3     1  UNL1        0.0949
     28 C         140.8220  145.1428  159.4882 C.2     1  UNL1        0.2266
     29 O         139.7408  145.2420  160.5232 O.2     1  UNL1       -0.2748
     30 N         142.0800  144.3830  159.7883 N.am    1  UNL1       -0.2839
     31 H         142.7896  144.3179  159.1090 H       1  UNL1        0.1549
@<TRIPOS>BOND
     1    27    28    1
     2    28    29    2
     3    28    30   am
     4    30    21    1
     5    21    22   ar
     6    22    23   ar
     7    23    24   ar
     8    24    18    1
     9    18    19    2
    10    18    20    2
    11    18     1    1
    12     1     3    1
    13     3     4   ar
    14     4     5   ar
    15     5     6   ar
    16     6     7   ar
    17     7     8   ar
    18     8     9    1
    19     9    10    2
    20     9    11    1
    21    11    12   ar
    22    12    13   ar
    23    13    14   ar
    24    14    15    1
    25    14    16   ar
    26    16    17   ar
    27    24    25   ar
    28    25    26   ar
    29    26    21   ar
    30     8     3   ar
    31    17    11   ar
    32    30    31    1
    33     1     2    1
@<TRIPOS>MOLECULE
*****
 31 33 0 0 0
SMALL
GASTEIGER

@<TRIPOS>ATOM
      1 N         142.7755  141.8942  167.0287 N.pl3   1  UNL1       -0.2149
      2 H         143.6852  141.7162  167.3605 H       1  UNL1        0.1737
      3 C         141.5863  141.5180  167.8618 C.ar    1  UNL1        0.0678
      4 C         141.1901  142.3699  169.0312 C.ar    1  UNL1        0.0160
      5 C         140.0008  141.9937  169.8643 C.ar    1  UNL1        0.0013
      6 C         139.2078  140.7657  169.5282 C.ar    1  UNL1        0.0002
      7 C         139.6040  139.9138  168.3588 C.ar    1  UNL1        0.0045
      8 C         140.7932  140.2900  167.5257 C.ar    1  UNL1        0.0535
      9 C         141.1894  139.4381  166.3563 C.2     1  UNL1        0.1968
     10 O         142.5415  138.7892  166.3251 O.2     1  UNL1       -0.2865
     11 C         140.2337  139.2352  165.2182 C.ar    1  UNL1        0.0391
     12 C         140.0287  137.8636  164.6464 C.ar    1  UNL1        0.0055
     13 C         139.0730  137.6607  163.5083 C.ar    1  UNL1        0.0297
     14 C         138.3221  138.8293  162.9420 C.ar    1  UNL1        0.1401
     15 F         137.3664  138.6263  161.8039 F       1  UNL1       -0.2042
     16 C         138.5270  140.2007  163.5138 C.ar    1  UNL1        0.0297
     17 C         139.4828  140.4037  164.6519 C.ar    1  UNL1        0.0055
     18 S         142.5788  142.5415  165.6900 S.O2    1  UNL1        0.0736
     19 O         143.9045  142.0060  165.2363 O.2     1  UNL1       -0.1499
     20 O         141.2532  143.0769  166.1437 O.2     1  UNL1       -0.1499
     21 C         141.9888  144.4835  161.6736 C.ar    1  UNL1        0.0504
     22 C         141.4845  145.1587  162.9146 C.ar    1  UNL1        0.0160
     23 C         141.6812  144.5113  164.2533 C.ar    1  UNL1        0.0215
     24 C         142.3822  143.1888  164.3512 C.ar    1  UNL1        0.1253
     25 C         142.8865  142.5136  163.1103 C.ar    1  UNL1        0.0215
     26 C         142.6898  143.1610  161.7715 C.ar    1  UNL1        0.0160
     27 C         140.2816  145.6453  158.2846 C.3     1  UNL1        0.0949
     28 C         140.4783  144.9980  159.6233 C.2     1  UNL1        0.2266
     29 O         139.3612  144.2178  160.2505 O.2     1  UNL1       -0.2748
     30 N         141.7921  145.1308  160.3349 N.am    1  UNL1       -0.2839
     31 H         142.5253  145.6429  159.9233 H       1  UNL1        0.1549
@<TRIPOS>BOND
     1    27    28    1
     2    28    29    2
     3    28    30   am
     4    30    21    1
     5    21    22   ar
     6    22    23   ar
     7    23    24   ar
     8    24    18    1
     9    18    19    2
    10    18    20    2
    11    18     1    1
    12     1     3    1
    13     3     4   ar
    14     4     5   ar
    15     5     6   ar
    16     6     7   ar
    17     7     8   ar
    18     8     9    1
    19     9    10    2
    20     9    11    1
    21    11    12   ar
    22    12    13   ar
    23    13    14   ar
    24    14    15    1
    25    14    16   ar
    26    16    17   ar
    27    24    25   ar
    28    25    26   ar
    29    26    21   ar
    30     8     3   ar
    31    17    11   ar
    32    30    31    1
    33     1     2    1
@<TRIPOS>MOLECULE
*****
 31 33 0 0 0
SMALL
GASTEIGER

@<TRIPOS>ATOM
      1 N         139.9600  141.5718  166.9398 N.pl3   1  UNL1       -0.2149
      2 H         139.3575  140.8088  167.0950 H       1  UNL1        0.1737
      3 C         140.8813  142.0337  168.0296 C.ar    1  UNL1        0.0678
      4 C         140.3366  142.8033  169.1962 C.ar    1  UNL1        0.0160
      5 C         141.2581  143.2652  170.2860 C.ar    1  UNL1        0.0013
      6 C         142.7241  142.9576  170.2092 C.ar    1  UNL1        0.0002
      7 C         143.2688  142.1880  169.0425 C.ar    1  UNL1        0.0045
      8 C         142.3475  141.7260  167.9528 C.ar    1  UNL1        0.0535
      9 C         142.8922  140.9564  166.7861 C.2     1  UNL1        0.1968
     10 O         142.9652  139.4593  166.8435 O.2     1  UNL1       -0.2865
     11 C         143.3639  141.6840  165.5621 C.ar    1  UNL1        0.0391
     12 C         143.3275  141.0046  164.2252 C.ar    1  UNL1        0.0055
     13 C         143.7992  141.7321  163.0012 C.ar    1  UNL1        0.0297
     14 C         144.3072  143.1390  163.1140 C.ar    1  UNL1        0.1401
     15 F         144.7789  143.8665  161.8900 F       1  UNL1       -0.2042
     16 C         144.3436  143.8183  164.4508 C.ar    1  UNL1        0.0297
     17 C         143.8719  143.0908  165.6749 C.ar    1  UNL1        0.0055
     18 S         139.9565  142.2723  165.6135 S.O2    1  UNL1        0.0736
     19 O         139.9590  140.9460  164.9129 O.2     1  UNL1       -0.1499
     20 O         139.9541  143.5986  166.3141 O.2     1  UNL1       -0.1499
     21 C         139.9462  144.3740  161.6344 C.ar    1  UNL1        0.0504
     22 C         139.2575  143.0500  161.7851 C.ar    1  UNL1        0.0160
     23 C         139.2609  142.3495  163.1114 C.ar    1  UNL1        0.0215
     24 C         139.9531  142.9729  164.2871 C.ar    1  UNL1        0.1253
     25 C         140.6419  144.2969  164.1364 C.ar    1  UNL1        0.0215
     26 C         140.6384  144.9975  162.8100 C.ar    1  UNL1        0.0160
     27 C         141.1658  145.7525  158.1184 C.3     1  UNL1        0.0949
     28 C         141.1693  145.0520  159.4447 C.2     1  UNL1        0.2266
     29 O         142.3992  144.3290  159.9078 O.2     1  UNL1       -0.2748
     30 N         139.9428  145.0745  160.3080 N.am    1  UNL1       -0.2839
     31 H         139.1355  145.5491  160.0041 H       1  UNL1        0.1549
@<TRIPOS>BOND
     1    27    28    1
     2    28    29    2
     3    28    30   am
     4    30    21    1
     5    21    22   ar
     6    22    23   ar
     7    23    24   ar
     8    24    18    1
     9    18    19    2
    10    18    20    2
    11    18     1    1
    12     1     3    1
    13     3     4   ar
    14     4     5   ar
    15     5     6   ar
    16     6     7   ar
    17     7     8   ar
    18     8     9    1
    19     9    10    2
    20     9    11    1
    21    11    12   ar
    22    12    13   ar
    23    13    14   ar
    24    14    15    1
    25    14    16   ar
    26    16    17   ar
    27    24    25   ar
    28    25    26   ar
    29    26    21   ar
    30     8     3   ar
    31    17    11   ar
    32    30    31    1
    33     1     2    1
@<TRIPOS>MOLECULE
*****
 31 33 0 0 0
SMALL
GASTEIGER

@<TRIPOS>ATOM
      1 N         143.2245  140.9876  166.8660 N.pl3   1  UNL1       -0.2149
      2 H         143.7107  140.1561  167.0697 H       1  UNL1        0.1737
      3 C         142.5137  141.7280  167.9598 C.ar    1  UNL1        0.0678
      4 C         143.2980  142.3500  169.0769 C.ar    1  UNL1        0.0160
      5 C         142.5871  143.0904  170.1708 C.ar    1  UNL1        0.0013
      6 C         141.0920  143.2088  170.1475 C.ar    1  UNL1        0.0002
      7 C         140.3077  142.5868  169.0304 C.ar    1  UNL1        0.0045
      8 C         141.0185  141.8464  167.9366 C.ar    1  UNL1        0.0535
      9 C         140.2342  141.2244  166.8194 C.2     1  UNL1        0.1968
     10 O         140.1730  139.7314  166.6867 O.2     1  UNL1       -0.2865
     11 C         139.5112  142.0952  165.8351 C.ar    1  UNL1        0.0391
     12 C         138.4507  141.5079  164.9517 C.ar    1  UNL1        0.0055
     13 C         137.7276  142.3787  163.9674 C.ar    1  UNL1        0.0297
     14 C         138.0651  143.8368  163.8664 C.ar    1  UNL1        0.1401
     15 F         137.3421  144.7076  162.8821 F       1  UNL1       -0.2042
     16 C         139.1256  144.4240  164.7498 C.ar    1  UNL1        0.0297
     17 C         139.8487  143.5532  165.7342 C.ar    1  UNL1        0.0055
     18 S         143.1945  141.5140  165.4617 S.O2    1  UNL1        0.0736
     19 O         143.4877  142.8935  165.9726 O.2     1  UNL1       -0.1499
     20 O         142.9013  140.1345  164.9509 O.2     1  UNL1       -0.1499
     21 C         143.1045  143.0935  161.2489 C.ar    1  UNL1        0.0504
     22 C         141.9067  142.3865  161.8107 C.ar    1  UNL1        0.0160
     23 C         141.9367  141.8600  163.2149 C.ar    1  UNL1        0.0215
     24 C         143.1645  142.0405  164.0575 C.ar    1  UNL1        0.1253
     25 C         144.3623  142.7474  163.4958 C.ar    1  UNL1        0.0215
     26 C         144.3323  143.2739  162.0915 C.ar    1  UNL1        0.0160
     27 C         143.4234  143.2534  157.2964 C.3     1  UNL1        0.0949
     28 C         143.4535  142.7269  158.7006 C.2     1  UNL1        0.2266
     29 O         143.8625  141.3075  158.9608 O.2     1  UNL1       -0.2748
     30 N         143.0745  143.6199  159.8447 N.am    1  UNL1       -0.2839
     31 H         142.8060  144.5516  159.6739 H       1  UNL1        0.1549
@<TRIPOS>BOND
     1    27    28    1
     2    28    29    2
     3    28    30   am
     4    30    21    1
     5    21    22   ar
     6    22    23   ar
     7    23    24   ar
     8    24    18    1
     9    18    19    2
    10    18    20    2
    11    18     1    1
    12     1     3    1
    13     3     4   ar
    14     4     5   ar
    15     5     6   ar
    16     6     7   ar
    17     7     8   ar
    18     8     9    1
    19     9    10    2
    20     9    11    1
    21    11    12   ar
    22    12    13   ar
    23    13    14   ar
    24    14    15    1
    25    14    16   ar
    26    16    17   ar
    27    24    25   ar
    28    25    26   ar
    29    26    21   ar
    30     8     3   ar
    31    17    11   ar
    32    30    31    1
    33     1     2    1
@<TRIPOS>MOLECULE
*****
 31 33 0 0 0
SMALL
GASTEIGER

@<TRIPOS>ATOM
      1 N         139.6886  139.8722  168.3667 N.pl3   1  UNL1       -0.2149
      2 H         139.3836  139.1438  168.9547 H       1  UNL1        0.1737
      3 C         140.6075  140.9312  168.8994 C.ar    1  UNL1        0.0678
      4 C         140.0460  142.1064  169.6435 C.ar    1  UNL1        0.0160
      5 C         140.9650  143.1655  170.1762 C.ar    1  UNL1        0.0013
      6 C         142.4455  143.0494  169.9650 C.ar    1  UNL1        0.0002
      7 C         143.0070  141.8742  169.2209 C.ar    1  UNL1        0.0045
      8 C         142.0881  140.8151  168.6882 C.ar    1  UNL1        0.0535
      9 C         142.6496  139.6400  167.9441 C.2     1  UNL1        0.1968
     10 O         143.2156  138.4745  168.7001 O.2     1  UNL1       -0.2865
     11 C         142.6451  139.6302  166.4442 C.ar    1  UNL1        0.0391
     12 C         142.7589  140.9191  165.6854 C.ar    1  UNL1        0.0055
     13 C         142.7544  140.9093  164.1855 C.ar    1  UNL1        0.0297
     14 C         142.6362  139.6106  163.4443 C.ar    1  UNL1        0.1401
     15 F         142.6318  139.6008  161.9443 F       1  UNL1       -0.2042
     16 C         142.5225  138.3217  164.2030 C.ar    1  UNL1        0.0297
     17 C         142.5270  138.3315  165.7030 C.ar    1  UNL1        0.0055
     18 S         139.2344  139.9228  166.9380 S.O2    1  UNL1        0.0736
     19 O         138.8151  138.4850  167.0204 O.2     1  UNL1       -0.1499
     20 O         139.6536  141.3606  166.8557 O.2     1  UNL1       -0.1499
     21 C         137.8716  140.0746  162.6519 C.ar    1  UNL1        0.0504
     22 C         137.7479  141.2903  163.5218 C.ar    1  UNL1        0.0160
     23 C         138.2022  141.2397  164.9505 C.ar    1  UNL1        0.0215
     24 C         138.7801  139.9734  165.5093 C.ar    1  UNL1        0.1253
     25 C         138.9038  138.7576  164.6395 C.ar    1  UNL1        0.0215
     26 C         138.4496  138.8082  163.2108 C.ar    1  UNL1        0.0160
     27 C         137.9465  140.4871  158.7056 C.3     1  UNL1        0.0949
     28 C         138.4007  140.4365  160.1342 C.2     1  UNL1        0.2266
     29 O         139.8383  140.6971  160.4737 O.2     1  UNL1       -0.2748
     30 N         137.4174  140.1252  161.2233 N.am    1  UNL1       -0.2839
     31 H         136.4738  139.9541  161.0004 H       1  UNL1        0.1549
@<TRIPOS>BOND
     1    27    28    1
     2    28    29    2
     3    28    30   am
     4    30    21    1
     5    21    22   ar
     6    22    23   ar
     7    23    24   ar
     8    24    18    1
     9    18    19    2
    10    18    20    2
    11    18     1    1
    12     1     3    1
    13     3     4   ar
    14     4     5   ar
    15     5     6   ar
    16     6     7   ar
    17     7     8   ar
    18     8     9    1
    19     9    10    2
    20     9    11    1
    21    11    12   ar
    22    12    13   ar
    23    13    14   ar
    24    14    15    1
    25    14    16   ar
    26    16    17   ar
    27    24    25   ar
    28    25    26   ar
    29    26    21   ar
    30     8     3   ar
    31    17    11   ar
    32    30    31    1
    33     1     2    1
@<TRIPOS>MOLECULE
*****
 31 33 0 0 0
SMALL
GASTEIGER

@<TRIPOS>ATOM
      1 N         137.3249  141.1194  162.6960 N.pl3   1  UNL1       -0.2149
      2 H         136.3492  141.2493  162.6805 H       1  UNL1        0.1737
      3 C         138.0893  141.0238  161.4089 C.ar    1  UNL1        0.0678
      4 C         137.9531  139.8056  160.5443 C.ar    1  UNL1        0.0160
      5 C         138.7175  139.7101  159.2572 C.ar    1  UNL1        0.0013
      6 C         139.6182  140.8327  158.8348 C.ar    1  UNL1        0.0002
      7 C         139.7545  142.0509  159.6994 C.ar    1  UNL1        0.0045
      8 C         138.9901  142.1464  160.9864 C.ar    1  UNL1        0.0535
      9 C         139.1264  143.3646  161.8510 C.2     1  UNL1        0.1968
     10 O         137.9661  144.3009  162.0158 O.2     1  UNL1       -0.2865
     11 C         140.4228  143.6465  162.5507 C.ar    1  UNL1        0.0391
     12 C         141.4422  142.5574  162.7085 C.ar    1  UNL1        0.0055
     13 C         142.7387  142.8392  163.4082 C.ar    1  UNL1        0.0297
     14 C         143.0159  144.2102  163.9501 C.ar    1  UNL1        0.1401
     15 F         144.3124  144.4921  164.6498 F       1  UNL1       -0.2042
     16 C         141.9966  145.2993  163.7923 C.ar    1  UNL1        0.0297
     17 C         140.7001  145.0174  163.0925 C.ar    1  UNL1        0.0055
     18 S         138.0472  141.0169  164.0066 S.O2    1  UNL1        0.0736
     19 O         137.4387  142.3165  164.4435 O.2     1  UNL1       -0.1499
     20 O         138.6558  139.7174  163.5696 O.2     1  UNL1       -0.1499
     21 C         140.2142  140.7098  167.9386 C.ar    1  UNL1        0.0504
     22 C         140.4118  141.9133  167.0652 C.ar    1  UNL1        0.0160
     23 C         139.6895  142.0156  165.7546 C.ar    1  UNL1        0.0215
     24 C         138.7696  140.9146  165.3173 C.ar    1  UNL1        0.1253
     25 C         138.5719  139.7111  166.1905 C.ar    1  UNL1        0.0215
     26 C         139.2942  139.6087  167.5012 C.ar    1  UNL1        0.0160
     27 C         143.0039  139.8447  170.6253 C.3     1  UNL1        0.0949
     28 C         142.2816  139.9470  169.3147 C.2     1  UNL1        0.2266
     29 O         142.9045  139.3889  168.0695 O.2     1  UNL1       -0.2748
     30 N         140.9365  140.6075  169.2492 N.am    1  UNL1       -0.2839
     31 H         140.5276  140.9738  170.0665 H       1  UNL1        0.1549
@<TRIPOS>BOND
     1    27    28    1
     2    28    29    2
     3    28    30   am
     4    30    21    1
     5    21    22   ar
     6    22    23   ar
     7    23    24   ar
     8    24    18    1
     9    18    19    2
    10    18    20    2
    11    18     1    1
    12     1     3    1
    13     3     4   ar
    14     4     5   ar
    15     5     6   ar
    16     6     7   ar
    17     7     8   ar
    18     8     9    1
    19     9    10    2
    20     9    11    1
    21    11    12   ar
    22    12    13   ar
    23    13    14   ar
    24    14    15    1
    25    14    16   ar
    26    16    17   ar
    27    24    25   ar
    28    25    26   ar
    29    26    21   ar
    30     8     3   ar
    31    17    11   ar
    32    30    31    1
    33     1     2    1
@<TRIPOS>MOLECULE
*****
 31 33 0 0 0
SMALL
GASTEIGER

@<TRIPOS>ATOM
      1 N         137.7355  142.6894  162.4481 N.pl3   1  UNL1       -0.2149
      2 H         136.8327  143.0820  162.4402 H       1  UNL1        0.1737
      3 C         138.5328  142.6166  161.1796 C.ar    1  UNL1        0.0678
      4 C         138.1187  141.6768  160.0864 C.ar    1  UNL1        0.0160
      5 C         138.9161  141.6040  158.8179 C.ar    1  UNL1        0.0013
      6 C         140.1274  142.4711  158.6427 C.ar    1  UNL1        0.0002
      7 C         140.5415  143.4110  159.7360 C.ar    1  UNL1        0.0045
      8 C         139.7442  143.4838  161.0044 C.ar    1  UNL1        0.0535
      9 C         140.1583  144.4236  162.0976 C.2     1  UNL1        0.1968
     10 O         139.3133  145.6212  162.4171 O.2     1  UNL1       -0.2865
     11 C         141.4172  144.1660  162.8714 C.ar    1  UNL1        0.0391
     12 C         142.1429  145.3052  163.5239 C.ar    1  UNL1        0.0055
     13 C         143.4018  145.0475  164.2977 C.ar    1  UNL1        0.0297
     14 C         143.9351  143.6508  164.4189 C.ar    1  UNL1        0.1401
     15 F         145.1940  143.3932  165.1926 F       1  UNL1       -0.2042
     16 C         143.2095  142.5117  163.7663 C.ar    1  UNL1        0.0297
     17 C         141.9505  142.7693  162.9925 C.ar    1  UNL1        0.0055
     18 S         138.3137  142.1641  163.7285 S.O2    1  UNL1        0.0736
     19 O         138.8051  140.9447  163.0063 O.2     1  UNL1       -0.1499
     20 O         137.8223  143.3835  164.4507 O.2     1  UNL1       -0.1499
     21 C         140.0485  140.5878  167.5699 C.ar    1  UNL1        0.0504
     22 C         139.1321  139.7269  166.7519 C.ar    1  UNL1        0.0160
     23 C         138.5538  140.2524  165.4714 C.ar    1  UNL1        0.0215
     24 C         138.8920  141.6387  165.0090 C.ar    1  UNL1        0.1253
     25 C         139.8084  142.4995  165.8270 C.ar    1  UNL1        0.0215
     26 C         140.3866  141.9741  167.1075 C.ar    1  UNL1        0.0160
     27 C         142.5844  138.9480  170.1447 C.3     1  UNL1        0.0949
     28 C         142.0062  139.4734  168.8643 C.2     1  UNL1        0.2266
     29 O         142.8075  139.4100  167.5979 O.2     1  UNL1       -0.2748
     30 N         140.6267  140.0624  168.8503 N.am    1  UNL1       -0.2839
     31 H         140.1008  140.1040  169.6816 H       1  UNL1        0.1549
@<TRIPOS>BOND
     1    27    28    1
     2    28    29    2
     3    28    30   am
     4    30    21    1
     5    21    22   ar
     6    22    23   ar
     7    23    24   ar
     8    24    18    1
     9    18    19    2
    10    18    20    2
    11    18     1    1
    12     1     3    1
    13     3     4   ar
    14     4     5   ar
    15     5     6   ar
    16     6     7   ar
    17     7     8   ar
    18     8     9    1
    19     9    10    2
    20     9    11    1
    21    11    12   ar
    22    12    13   ar
    23    13    14   ar
    24    14    15    1
    25    14    16   ar
    26    16    17   ar
    27    24    25   ar
    28    25    26   ar
    29    26    21   ar
    30     8     3   ar
    31    17    11   ar
    32    30    31    1
    33     1     2    1
@<TRIPOS>MOLECULE
*****
 31 33 0 0 0
SMALL
GASTEIGER

@<TRIPOS>ATOM
      1 N         138.4800  139.1152  162.7038 N.pl3   1  UNL1       -0.2149
      2 H         137.9607  138.3742  163.0918 H       1  UNL1        0.1737
      3 C         138.3061  140.5091  163.2298 C.ar    1  UNL1        0.0678
      4 C         137.9098  141.6175  162.3002 C.ar    1  UNL1        0.0160
      5 C         137.7359  143.0115  162.8263 C.ar    1  UNL1        0.0013
      6 C         137.9582  143.2969  164.2820 C.ar    1  UNL1        0.0002
      7 C         138.3545  142.1884  165.2116 C.ar    1  UNL1        0.0045
      8 C         138.5284  140.7945  164.6856 C.ar    1  UNL1        0.0535
      9 C         138.9247  139.6861  165.6152 C.2     1  UNL1        0.1968
     10 O         138.2292  138.3592  165.5397 O.2     1  UNL1       -0.2865
     11 C         140.0164  139.9044  166.6204 C.ar    1  UNL1        0.0391
     12 C         139.6789  140.0484  168.0749 C.ar    1  UNL1        0.0055
     13 C         140.7706  140.2668  169.0801 C.ar    1  UNL1        0.0297
     14 C         142.1998  140.3412  168.6309 C.ar    1  UNL1        0.1401
     15 F         143.2915  140.5596  169.6361 F       1  UNL1       -0.2042
     16 C         142.5373  140.1973  167.1765 C.ar    1  UNL1        0.0297
     17 C         141.4456  139.9789  166.1712 C.ar    1  UNL1        0.0055
     18 S         139.4452  138.8502  161.5867 S.O2    1  UNL1        0.0736
     19 O         140.5931  139.1066  162.5176 O.2     1  UNL1       -0.1499
     20 O         138.2974  138.5938  160.6557 O.2     1  UNL1       -0.1499
     21 C         142.3411  138.0552  158.2352 C.ar    1  UNL1        0.0504
     22 C         142.7666  137.8492  159.6588 C.ar    1  UNL1        0.0160
     23 C         141.8013  138.1142  160.7759 C.ar    1  UNL1        0.0215
     24 C         140.4105  138.5852  160.4695 C.ar    1  UNL1        0.1253
     25 C         139.9850  138.7911  159.0459 C.ar    1  UNL1        0.0215
     26 C         140.9503  138.5261  157.9287 C.ar    1  UNL1        0.0160
     27 C         144.2831  136.1882  155.3209 C.3     1  UNL1        0.0949
     28 C         143.3178  136.4532  156.4380 C.2     1  UNL1        0.2266
     29 O         142.3640  135.3813  156.8751 O.2     1  UNL1       -0.2748
     30 N         143.3064  137.7902  157.1181 N.am    1  UNL1       -0.2839
     31 H         143.9325  138.4937  156.8312 H       1  UNL1        0.1549
@<TRIPOS>BOND
     1    27    28    1
     2    28    29    2
     3    28    30   am
     4    30    21    1
     5    21    22   ar
     6    22    23   ar
     7    23    24   ar
     8    24    18    1
     9    18    19    2
    10    18    20    2
    11    18     1    1
    12     1     3    1
    13     3     4   ar
    14     4     5   ar
    15     5     6   ar
    16     6     7   ar
    17     7     8   ar
    18     8     9    1
    19     9    10    2
    20     9    11    1
    21    11    12   ar
    22    12    13   ar
    23    13    14   ar
    24    14    15    1
    25    14    16   ar
    26    16    17   ar
    27    24    25   ar
    28    25    26   ar
    29    26    21   ar
    30     8     3   ar
    31    17    11   ar
    32    30    31    1
    33     1     2    1
@<TRIPOS>MOLECULE
*****
 31 33 0 0 0
SMALL
GASTEIGER

@<TRIPOS>ATOM
      1 N         140.9662  138.3083  164.2649 N.pl3   1  UNL1       -0.2149
      2 H         141.7300  137.6871  164.2600 H       1  UNL1        0.1737
      3 C         140.4342  138.8326  165.5656 C.ar    1  UNL1        0.0678
      4 C         138.9601  138.7981  165.8414 C.ar    1  UNL1        0.0160
      5 C         138.4281  139.3225  167.1423 C.ar    1  UNL1        0.0013
      6 C         139.3700  139.8813  168.1672 C.ar    1  UNL1        0.0002
      7 C         140.8441  139.9157  167.8913 C.ar    1  UNL1        0.0045
      8 C         141.3761  139.3914  166.5906 C.ar    1  UNL1        0.0535
      9 C         142.8502  139.4258  166.3148 C.2     1  UNL1        0.1968
     10 O         143.7626  138.4448  166.9895 O.2     1  UNL1       -0.2865
     11 C         143.4118  140.4412  165.3643 C.ar    1  UNL1        0.0391
     12 C         144.3955  140.0207  164.3127 C.ar    1  UNL1        0.0055
     13 C         144.9571  141.0361  163.3622 C.ar    1  UNL1        0.0297
     14 C         144.5351  142.4720  163.4631 C.ar    1  UNL1        0.1401
     15 F         145.0967  143.4873  162.5126 F       1  UNL1       -0.2042
     16 C         143.5515  142.8925  164.5146 C.ar    1  UNL1        0.0297
     17 C         142.9898  141.8771  165.4652 C.ar    1  UNL1        0.0055
     18 S         140.3346  138.7304  162.9715 S.O2    1  UNL1        0.0736
     19 O         139.8521  137.3276  162.7494 O.2     1  UNL1       -0.1499
     20 O         140.8171  140.1331  163.1937 O.2     1  UNL1       -0.1499
     21 C         138.4396  139.9966  159.0913 C.ar    1  UNL1        0.0504
     22 C         139.9203  139.7680  159.1634 C.ar    1  UNL1        0.0160
     23 C         140.5520  139.3459  160.4568 C.ar    1  UNL1        0.0215
     24 C         139.7029  139.1524  161.6781 C.ar    1  UNL1        0.1253
     25 C         138.2222  139.3810  161.6061 C.ar    1  UNL1        0.0215
     26 C         137.5905  139.8031  160.3126 C.ar    1  UNL1        0.0160
     27 C         136.9794  142.2975  156.2063 C.3     1  UNL1        0.0949
     28 C         137.6110  141.8754  157.4996 C.2     1  UNL1        0.2266
     29 O         138.0458  142.9102  158.4947 O.2     1  UNL1       -0.2748
     30 N         137.8079  140.4186  157.7979 N.am    1  UNL1       -0.2839
     31 H         137.5226  139.7395  157.1448 H       1  UNL1        0.1549
@<TRIPOS>BOND
     1    27    28    1
     2    28    29    2
     3    28    30   am
     4    30    21    1
     5    21    22   ar
     6    22    23   ar
     7    23    24   ar
     8    24    18    1
     9    18    19    2
    10    18    20    2
    11    18     1    1
    12     1     3    1
    13     3     4   ar
    14     4     5   ar
    15     5     6   ar
    16     6     7   ar
    17     7     8   ar
    18     8     9    1
    19     9    10    2
    20     9    11    1
    21    11    12   ar
    22    12    13   ar
    23    13    14   ar
    24    14    15    1
    25    14    16   ar
    26    16    17   ar
    27    24    25   ar
    28    25    26   ar
    29    26    21   ar
    30     8     3   ar
    31    17    11   ar
    32    30    31    1
    33     1     2    1
