@<TRIPOS>MOLECULE
*****
 38 43 0 0 0
SMALL
GASTEIGER

@<TRIPOS>ATOM
      1 C         141.0292  145.5058  160.0806 C.3     1  UNL1        0.0294
      2 C         140.2230  145.7079  161.3293 C.3     1  UNL1        0.0730
      3 C         140.5127  140.9535  168.8401 C.ar    1  UNL1        0.0800
      4 N         141.4622  139.7943  168.9079 N.ar    1  UNL1       -0.1736
      5 N         142.1862  139.7110  167.5968 N.ar    1  UNL1       -0.2492
      6 C         143.2291  138.6977  167.2285 C.3     1  UNL1        0.1537
      7 C         141.6842  140.8186  166.7188 C.ar    1  UNL1        0.0787
      8 C         142.0353  141.2272  165.3189 C.ar    1  UNL1        0.0142
      9 C         141.3520  142.4039  164.6873 C.ar    1  UNL1       -0.0232
     10 C         140.3178  143.1718  165.4557 C.ar    1  UNL1       -0.0246
     11 C         139.9667  142.7633  166.8556 C.ar    1  UNL1       -0.0018
     12 C         140.6499  141.5867  167.4872 C.ar    1  UNL1        0.0322
     13 C         139.5229  144.3662  165.0178 C.3     1  UNL1        0.0433
     14 C         139.5661  145.0876  163.7033 C.3     1  UNL1        0.0768
     15 N         140.4147  144.7927  162.5022 N.3     1  UNL1       -0.2720
     16 C         141.4298  143.7037  162.3188 C.3     1  UNL1        0.0768
     17 C         141.8470  142.6405  163.2912 C.3     1  UNL1        0.0434
     18 C         139.7875  142.7383  170.5833 C.3     1  UNL1        0.0068
     19 C         139.5883  141.4012  169.9333 C.3     1  UNL1        0.0476
     20 C         140.3387  145.3681  158.7561 C.3     1  UNL1        0.0666
     21 S         139.9786  144.0081  158.2359 S.3     1  UNL1       -0.0756
     22 C         139.5715  142.9240  159.1893 C.ar    1  UNL1        0.1932
     23 N         138.1886  142.6917  159.7217 N.ar    1  UNL1       -0.1221
     24 N         138.2382  141.5060  160.6392 N.ar    1  UNL1       -0.1282
     25 C         139.6518  141.0056  160.6737 C.ar    1  UNL1        0.1669
     26 N         140.4759  141.8820  159.7776 N.ar    1  UNL1       -0.2884
     27 C         141.9461  141.7410  159.5159 C.3     1  UNL1        0.1340
     28 C         140.1534  139.8344  161.4654 C.ar    1  UNL1        0.0374
     29 C         141.1770  138.9117  160.8729 C.ar    1  UNL1        0.0031
     30 C         141.6785  137.7405  161.6646 C.ar    1  UNL1        0.0016
     31 C         141.1566  137.4919  163.0487 C.ar    1  UNL1        0.0191
     32 C         140.1331  138.4146  163.6411 C.ar    1  UNL1        0.0810
     33 N         139.6111  138.1662  165.0252 N.ar    1  UNL1       -0.2497
     34 C         138.5876  139.0888  165.6178 C.ar    1  UNL1        0.0593
     35 C         138.0656  138.8403  167.0019 C.3     1  UNL1        0.0521
     36 C         138.0860  140.2600  164.8261 C.ar    1  UNL1        0.0147
     37 C         138.6080  140.5085  163.4419 C.ar    1  UNL1        0.0028
     38 C         139.6315  139.5858  162.8495 C.ar    1  UNL1        0.0206
@<TRIPOS>BOND
     1    18    19    1
     2    19     3    1
     3     3     4   ar
     4     4     5   ar
     5     5     6    1
     6     5     7   ar
     7     7     8   ar
     8     8     9   ar
     9     9    10   ar
    10    10    11   ar
    11    11    12   ar
    12    10    13    1
    13    13    14    1
    14    14    15    1
    15    15     2    1
    16     2     1    1
    17     1    20    1
    18    20    21    1
    19    21    22    1
    20    22    23   ar
    21    23    24   ar
    22    24    25   ar
    23    25    28    1
    24    28    29   ar
    25    29    30   ar
    26    30    31   ar
    27    31    32   ar
    28    32    33   ar
    29    33    34   ar
    30    34    35    1
    31    34    36   ar
    32    36    37   ar
    33    37    38   ar
    34    25    26   ar
    35    26    27    1
    36    15    16    1
    37    16    17    1
    38    12     3   ar
    39    26    22   ar
    40    12     7   ar
    41    38    28   ar
    42    17     9    1
    43    38    32   ar
@<TRIPOS>MOLECULE
*****
 38 43 0 0 0
SMALL
GASTEIGER

@<TRIPOS>ATOM
      1 C         140.1134  145.3675  159.3336 C.3     1  UNL1        0.0294
      2 C         140.0483  145.8901  160.7382 C.3     1  UNL1        0.0730
      3 C         139.3446  139.7749  167.1576 C.ar    1  UNL1        0.0800
      4 N         140.4035  139.7381  168.2194 N.ar    1  UNL1       -0.1736
      5 N         141.3977  140.8207  167.9200 N.ar    1  UNL1       -0.2492
      6 C         142.6215  141.1411  168.7260 C.3     1  UNL1        0.1537
      7 C         140.9533  141.5264  166.6733 C.ar    1  UNL1        0.0787
      8 C         141.5402  142.6741  165.9062 C.ar    1  UNL1        0.0142
      9 C         140.8581  143.1755  164.6679 C.ar    1  UNL1       -0.0232
     10 C         139.5892  142.5292  164.1967 C.ar    1  UNL1       -0.0246
     11 C         139.0023  141.3815  164.9637 C.ar    1  UNL1       -0.0018
     12 C         139.6844  140.8801  166.2020 C.ar    1  UNL1        0.0322
     13 C         138.7550  142.8706  162.9976 C.3     1  UNL1        0.0433
     14 C         138.9839  143.9427  161.9737 C.3     1  UNL1        0.0768
     15 N         140.1032  144.9380  161.8960 N.3     1  UNL1       -0.2720
     16 C         141.2704  145.1072  162.8229 C.3     1  UNL1        0.0768
     17 C         141.6064  144.3228  164.0565 C.3     1  UNL1        0.0434
     18 C         138.1746  137.6955  166.1293 C.3     1  UNL1        0.0068
     19 C         138.1547  138.8660  167.0671 C.3     1  UNL1        0.0476
     20 C         141.4083  145.4078  158.5775 C.3     1  UNL1        0.0666
     21 S         142.2454  144.1691  158.4574 S.3     1  UNL1       -0.0756
     22 C         142.3676  143.2306  159.6212 C.ar    1  UNL1        0.1932
     23 N         143.4451  143.2553  160.6644 N.ar    1  UNL1       -0.1221
     24 N         143.1772  142.1427  161.6341 N.ar    1  UNL1       -0.1282
     25 C         141.9340  141.4304  161.1902 C.ar    1  UNL1        0.1669
     26 N         141.4336  142.1028  159.9461 N.ar    1  UNL1       -0.2884
     27 C         140.2135  141.7152  159.1643 C.3     1  UNL1        0.1340
     28 C         141.3021  140.2525  161.8708 C.ar    1  UNL1        0.0374
     29 C         140.0616  139.6325  161.2991 C.ar    1  UNL1        0.0031
     30 C         139.4297  138.4546  161.9797 C.ar    1  UNL1        0.0016
     31 C         140.0382  137.8967  163.2320 C.ar    1  UNL1        0.0191
     32 C         141.2786  138.5166  163.8037 C.ar    1  UNL1        0.0810
     33 N         141.8872  137.9587  165.0561 N.ar    1  UNL1       -0.2497
     34 C         143.1277  138.5787  165.6279 C.ar    1  UNL1        0.0593
     35 C         143.7362  138.0208  166.8802 C.3     1  UNL1        0.0521
     36 C         143.7596  139.7566  164.9472 C.ar    1  UNL1        0.0147
     37 C         143.1510  140.3145  163.6948 C.ar    1  UNL1        0.0028
     38 C         141.9105  139.6945  163.1231 C.ar    1  UNL1        0.0206
@<TRIPOS>BOND
     1    18    19    1
     2    19     3    1
     3     3     4   ar
     4     4     5   ar
     5     5     6    1
     6     5     7   ar
     7     7     8   ar
     8     8     9   ar
     9     9    10   ar
    10    10    11   ar
    11    11    12   ar
    12    10    13    1
    13    13    14    1
    14    14    15    1
    15    15     2    1
    16     2     1    1
    17     1    20    1
    18    20    21    1
    19    21    22    1
    20    22    23   ar
    21    23    24   ar
    22    24    25   ar
    23    25    28    1
    24    28    29   ar
    25    29    30   ar
    26    30    31   ar
    27    31    32   ar
    28    32    33   ar
    29    33    34   ar
    30    34    35    1
    31    34    36   ar
    32    36    37   ar
    33    37    38   ar
    34    25    26   ar
    35    26    27    1
    36    15    16    1
    37    16    17    1
    38    12     3   ar
    39    26    22   ar
    40    12     7   ar
    41    38    28   ar
    42    17     9    1
    43    38    32   ar
@<TRIPOS>MOLECULE
*****
 38 43 0 0 0
SMALL
GASTEIGER

@<TRIPOS>ATOM
      1 C         140.6813  144.6390  158.5590 C.3     1  UNL1        0.0294
      2 C         140.2929  145.3378  159.8283 C.3     1  UNL1        0.0730
      3 C         140.1926  141.6289  167.9112 C.ar    1  UNL1        0.0800
      4 N         139.4920  140.3130  168.0775 N.ar    1  UNL1       -0.1736
      5 N         138.9371  139.9114  166.7430 N.ar    1  UNL1       -0.2492
      6 C         138.1609  138.6615  166.4511 C.3     1  UNL1        0.1537
      7 C         139.2948  140.9790  165.7520 C.ar    1  UNL1        0.0787
      8 C         139.0141  141.1217  164.2854 C.ar    1  UNL1        0.0142
      9 C         139.5095  142.3259  163.5407 C.ar    1  UNL1       -0.0232
     10 C         140.2854  143.3873  164.2626 C.ar    1  UNL1       -0.0246
     11 C         140.5660  143.2447  165.7292 C.ar    1  UNL1       -0.0018
     12 C         140.0707  142.0405  166.4739 C.ar    1  UNL1        0.0322
     13 C         140.8661  144.6572  163.7146 C.3     1  UNL1        0.0433
     14 C         140.8143  145.1791  162.3092 C.3     1  UNL1        0.0768
     15 N         140.1690  144.5602  161.1049 N.3     1  UNL1       -0.2720
     16 C         139.4161  143.2664  161.0084 C.3     1  UNL1        0.0768
     17 C         139.1226  142.2720  162.0924 C.3     1  UNL1        0.0434
     18 C         140.1470  142.7965  170.2316 C.3     1  UNL1        0.0068
     19 C         140.8922  142.3982  168.9922 C.3     1  UNL1        0.0476
     20 C         142.0824  144.7568  158.0364 C.3     1  UNL1        0.0666
     21 S         143.0776  143.6676  158.3064 S.3     1  UNL1       -0.0756
     22 C         143.0329  142.9155  159.6035 C.ar    1  UNL1        0.1932
     23 N         143.7233  143.3097  160.8754 N.ar    1  UNL1       -0.1221
     24 N         143.4072  142.2750  161.9144 N.ar    1  UNL1       -0.1282
     25 C         142.5213  141.2413  161.2845 C.ar    1  UNL1        0.1669
     26 N         142.2900  141.6371  159.8562 N.ar    1  UNL1       -0.2884
     27 C         141.4614  140.8864  158.8564 C.3     1  UNL1        0.1340
     28 C         141.9645  140.0253  161.9636 C.ar    1  UNL1        0.0374
     29 C         141.1667  139.0269  161.1783 C.ar    1  UNL1        0.0031
     30 C         140.6098  137.8109  161.8574 C.ar    1  UNL1        0.0016
     31 C         140.8509  137.5931  163.3218 C.ar    1  UNL1        0.0191
     32 C         141.6487  138.5915  164.1071 C.ar    1  UNL1        0.0810
     33 N         141.8898  138.3738  165.5715 N.ar    1  UNL1       -0.2497
     34 C         142.6877  139.3722  166.3569 C.ar    1  UNL1        0.0593
     35 C         142.9287  139.1545  167.8213 C.3     1  UNL1        0.0521
     36 C         143.2445  140.5882  165.6777 C.ar    1  UNL1        0.0147
     37 C         143.0034  140.8059  164.2133 C.ar    1  UNL1        0.0028
     38 C         142.2055  139.8075  163.4280 C.ar    1  UNL1        0.0206
@<TRIPOS>BOND
     1    18    19    1
     2    19     3    1
     3     3     4   ar
     4     4     5   ar
     5     5     6    1
     6     5     7   ar
     7     7     8   ar
     8     8     9   ar
     9     9    10   ar
    10    10    11   ar
    11    11    12   ar
    12    10    13    1
    13    13    14    1
    14    14    15    1
    15    15     2    1
    16     2     1    1
    17     1    20    1
    18    20    21    1
    19    21    22    1
    20    22    23   ar
    21    23    24   ar
    22    24    25   ar
    23    25    28    1
    24    28    29   ar
    25    29    30   ar
    26    30    31   ar
    27    31    32   ar
    28    32    33   ar
    29    33    34   ar
    30    34    35    1
    31    34    36   ar
    32    36    37   ar
    33    37    38   ar
    34    25    26   ar
    35    26    27    1
    36    15    16    1
    37    16    17    1
    38    12     3   ar
    39    26    22   ar
    40    12     7   ar
    41    38    28   ar
    42    17     9    1
    43    38    32   ar
@<TRIPOS>MOLECULE
*****
 38 43 0 0 0
SMALL
GASTEIGER

@<TRIPOS>ATOM
      1 C         140.5080  145.3717  158.3205 C.3     1  UNL1        0.0294
      2 C         141.7543  145.3419  159.1548 C.3     1  UNL1        0.0730
      3 C         142.8109  139.7258  165.9696 C.ar    1  UNL1        0.0800
      4 N         142.0508  139.9962  167.2342 N.ar    1  UNL1       -0.1736
      5 N         141.2367  141.2392  167.0288 N.ar    1  UNL1       -0.2492
      6 C         140.3256  141.8731  168.0377 C.3     1  UNL1        0.1537
      7 C         141.4937  141.7370  165.6373 C.ar    1  UNL1        0.0787
      8 C         140.9675  142.9212  164.8818 C.ar    1  UNL1        0.0142
      9 C         141.4143  143.1699  163.4716 C.ar    1  UNL1       -0.0232
     10 C         142.3871  142.2346  162.8171 C.ar    1  UNL1       -0.0246
     11 C         142.9134  141.0504  163.5725 C.ar    1  UNL1       -0.0018
     12 C         142.4667  140.8016  164.9827 C.ar    1  UNL1        0.0322
     13 C         142.9579  142.2982  161.4313 C.3     1  UNL1        0.0433
     14 C         142.6966  143.3130  160.3579 C.3     1  UNL1        0.0768
     15 N         141.8002  144.5146  160.4052 N.3     1  UNL1       -0.2720
     16 C         140.9435  144.9984  161.5375 C.3     1  UNL1        0.0768
     17 C         140.7717  144.4000  162.9022 C.3     1  UNL1        0.0434
     18 C         144.1358  137.6800  166.8695 C.3     1  UNL1        0.0068
     19 C         143.7504  138.5805  165.7334 C.3     1  UNL1        0.0476
     20 C         140.2524  144.2882  157.3152 C.3     1  UNL1        0.0666
     21 S         139.2092  143.2449  157.5859 S.3     1  UNL1       -0.0756
     22 C         139.1593  142.5630  158.9210 C.ar    1  UNL1        0.1932
     23 N         138.3471  142.9995  160.1041 N.ar    1  UNL1       -0.1221
     24 N         138.5985  142.0312  161.2217 N.ar    1  UNL1       -0.1282
     25 C         139.5662  140.9963  160.7294 C.ar    1  UNL1        0.1669
     26 N         139.9128  141.3249  159.3074 N.ar    1  UNL1       -0.2884
     27 C         140.8486  140.5513  158.4266 C.3     1  UNL1        0.1340
     28 C         140.0946  139.8363  161.5201 C.ar    1  UNL1        0.0374
     29 C         141.1189  138.9217  160.9166 C.ar    1  UNL1        0.0031
     30 C         141.6473  137.7617  161.7073 C.ar    1  UNL1        0.0016
     31 C         141.1513  137.5162  163.1015 C.ar    1  UNL1        0.0191
     32 C         140.1270  138.4308  163.7049 C.ar    1  UNL1        0.0810
     33 N         139.6309  138.1854  165.0991 N.ar    1  UNL1       -0.2497
     34 C         138.6065  139.1000  165.7026 C.ar    1  UNL1        0.0593
     35 C         138.1105  138.8546  167.0968 C.3     1  UNL1        0.0521
     36 C         138.0782  140.2600  164.9118 C.ar    1  UNL1        0.0147
     37 C         138.5742  140.5054  163.5177 C.ar    1  UNL1        0.0028
     38 C         139.5986  139.5908  162.9142 C.ar    1  UNL1        0.0206
@<TRIPOS>BOND
     1    18    19    1
     2    19     3    1
     3     3     4   ar
     4     4     5   ar
     5     5     6    1
     6     5     7   ar
     7     7     8   ar
     8     8     9   ar
     9     9    10   ar
    10    10    11   ar
    11    11    12   ar
    12    10    13    1
    13    13    14    1
    14    14    15    1
    15    15     2    1
    16     2     1    1
    17     1    20    1
    18    20    21    1
    19    21    22    1
    20    22    23   ar
    21    23    24   ar
    22    24    25   ar
    23    25    28    1
    24    28    29   ar
    25    29    30   ar
    26    30    31   ar
    27    31    32   ar
    28    32    33   ar
    29    33    34   ar
    30    34    35    1
    31    34    36   ar
    32    36    37   ar
    33    37    38   ar
    34    25    26   ar
    35    26    27    1
    36    15    16    1
    37    16    17    1
    38    12     3   ar
    39    26    22   ar
    40    12     7   ar
    41    38    28   ar
    42    17     9    1
    43    38    32   ar
@<TRIPOS>MOLECULE
*****
 38 43 0 0 0
SMALL
GASTEIGER

@<TRIPOS>ATOM
      1 C         141.9173  139.6602  169.9856 C.3     1  UNL1        0.0294
      2 C         142.8750  140.5513  169.2515 C.3     1  UNL1        0.0730
      3 C         143.8477  141.1652  160.4324 C.ar    1  UNL1        0.0800
      4 N         143.6606  139.9238  159.6114 N.ar    1  UNL1       -0.1736
      5 N         143.3305  138.7966  160.5444 N.ar    1  UNL1       -0.2492
      6 C         143.0641  137.3744  160.1492 C.3     1  UNL1        0.1537
      7 C         143.3137  139.3413  161.9419 C.ar    1  UNL1        0.0787
      8 C         143.0485  138.6935  163.2685 C.ar    1  UNL1        0.0142
      9 C         143.1031  139.5096  164.5260 C.ar    1  UNL1       -0.0232
     10 C         143.4227  140.9734  164.4567 C.ar    1  UNL1       -0.0246
     11 C         143.6879  141.6213  163.1301 C.ar    1  UNL1       -0.0018
     12 C         143.6333  140.8053  161.8726 C.ar    1  UNL1        0.0322
     13 C         143.5270  141.9621  165.5800 C.3     1  UNL1        0.0433
     14 C         143.3373  141.7310  167.0499 C.3     1  UNL1        0.0768
     15 N         142.9966  140.4542  167.7595 N.3     1  UNL1       -0.2720
     16 C         142.7613  139.0931  167.1746 C.3     1  UNL1        0.0768
     17 C         142.8087  138.6727  165.7355 C.3     1  UNL1        0.0434
     18 C         144.5828  142.6988  158.4682 C.3     1  UNL1        0.0068
     19 C         144.1893  142.5275  159.9055 C.3     1  UNL1        0.0476
     20 C         140.7453  140.2536  170.7096 C.3     1  UNL1        0.0666
     21 S         139.4469  140.4645  169.9887 S.3     1  UNL1       -0.0756
     22 C         139.3991  140.3864  168.4915 C.ar    1  UNL1        0.1932
     23 N         138.9437  139.2071  167.6842 N.ar    1  UNL1       -0.1221
     24 N         139.0613  139.5657  166.2325 N.ar    1  UNL1       -0.1282
     25 C         139.5894  140.9669  166.1426 C.ar    1  UNL1        0.1669
     26 N         139.7981  141.4741  167.5388 N.ar    1  UNL1       -0.2884
     27 C         140.3151  142.8308  167.9158 C.3     1  UNL1        0.1340
     28 C         139.8610  141.7273  164.8785 C.ar    1  UNL1        0.0374
     29 C         140.1648  143.1950  164.9367 C.ar    1  UNL1        0.0031
     30 C         140.4364  143.9554  163.6726 C.ar    1  UNL1        0.0016
     31 C         140.4043  143.2482  162.3502 C.ar    1  UNL1        0.0191
     32 C         140.1005  141.7804  162.2920 C.ar    1  UNL1        0.0810
     33 N         140.0684  141.0730  160.9697 N.ar    1  UNL1       -0.2497
     34 C         139.7646  139.6052  160.9114 C.ar    1  UNL1        0.0593
     35 C         139.7325  138.8978  159.5891 C.3     1  UNL1        0.0521
     36 C         139.4930  138.8448  162.1756 C.ar    1  UNL1        0.0147
     37 C         139.5251  139.5522  163.4979 C.ar    1  UNL1        0.0028
     38 C         139.8289  141.0200  163.5561 C.ar    1  UNL1        0.0206
@<TRIPOS>BOND
     1    18    19    1
     2    19     3    1
     3     3     4   ar
     4     4     5   ar
     5     5     6    1
     6     5     7   ar
     7     7     8   ar
     8     8     9   ar
     9     9    10   ar
    10    10    11   ar
    11    11    12   ar
    12    10    13    1
    13    13    14    1
    14    14    15    1
    15    15     2    1
    16     2     1    1
    17     1    20    1
    18    20    21    1
    19    21    22    1
    20    22    23   ar
    21    23    24   ar
    22    24    25   ar
    23    25    28    1
    24    28    29   ar
    25    29    30   ar
    26    30    31   ar
    27    31    32   ar
    28    32    33   ar
    29    33    34   ar
    30    34    35    1
    31    34    36   ar
    32    36    37   ar
    33    37    38   ar
    34    25    26   ar
    35    26    27    1
    36    15    16    1
    37    16    17    1
    38    12     3   ar
    39    26    22   ar
    40    12     7   ar
    41    38    28   ar
    42    17     9    1
    43    38    32   ar
@<TRIPOS>MOLECULE
*****
 38 43 0 0 0
SMALL
GASTEIGER

@<TRIPOS>ATOM
      1 C         142.3791  138.6059  156.2869 C.3     1  UNL1        0.0294
      2 C         143.0812  137.9074  157.4136 C.3     1  UNL1        0.0730
      3 C         143.7100  142.6006  164.9421 C.ar    1  UNL1        0.0800
      4 N         143.3051  141.9378  166.2253 N.ar    1  UNL1       -0.1736
      5 N         142.8594  140.5417  165.9053 N.ar    1  UNL1       -0.2492
      6 C         142.3702  139.5243  166.8930 C.3     1  UNL1        0.1537
      7 C         142.9889  140.3417  164.4244 C.ar    1  UNL1        0.0787
      8 C         142.6960  139.1653  163.5411 C.ar    1  UNL1        0.0142
      9 C         142.9289  139.2614  162.0623 C.ar    1  UNL1       -0.0232
     10 C         143.4546  140.5338  161.4671 C.ar    1  UNL1       -0.0246
     11 C         143.7475  141.7102  162.3503 C.ar    1  UNL1       -0.0018
     12 C         143.5146  141.6142  163.8290 C.ar    1  UNL1        0.0322
     13 C         143.7553  140.8395  160.0296 C.3     1  UNL1        0.0433
     14 C         143.6045  139.9482  158.8325 C.3     1  UNL1        0.0768
     15 N         143.1158  138.5312  158.7773 N.3     1  UNL1       -0.2720
     16 C         142.6572  137.6553  159.9054 C.3     1  UNL1        0.0768
     17 C         142.5740  137.9803  161.3674 C.3     1  UNL1        0.0434
     18 C         143.4696  144.9918  163.9549 C.3     1  UNL1        0.0068
     19 C         144.2207  144.0036  164.7972 C.3     1  UNL1        0.0476
     20 C         140.8938  138.4688  156.1288 C.3     1  UNL1        0.0666
     21 S         139.9780  139.4951  156.7270 S.3     1  UNL1       -0.0756
     22 C         139.7759  139.5451  158.2125 C.ar    1  UNL1        0.1932
     23 N         139.2793  138.4213  159.0730 N.ar    1  UNL1       -0.1221
     24 N         139.2314  138.9092  160.4906 N.ar    1  UNL1       -0.1282
     25 C         139.6985  140.3345  160.5062 C.ar    1  UNL1        0.1669
     26 N         140.0350  140.7275  159.0983 N.ar    1  UNL1       -0.2884
     27 C         140.5417  142.0677  158.6542 C.3     1  UNL1        0.1340
     28 C         139.8095  141.2127  161.7172 C.ar    1  UNL1        0.0374
     29 C         140.2821  142.6293  161.5756 C.ar    1  UNL1        0.0031
     30 C         140.3931  143.5074  162.7866 C.ar    1  UNL1        0.0016
     31 C         140.0316  142.9691  164.1392 C.ar    1  UNL1        0.0191
     32 C         139.5591  141.5526  164.2808 C.ar    1  UNL1        0.0810
     33 N         139.1976  141.0142  165.6333 N.ar    1  UNL1       -0.2497
     34 C         138.7251  139.5976  165.7750 C.ar    1  UNL1        0.0593
     35 C         138.3636  139.0592  167.1275 C.3     1  UNL1        0.0521
     36 C         138.6140  138.7194  164.5639 C.ar    1  UNL1        0.0147
     37 C         138.9755  139.2578  163.2114 C.ar    1  UNL1        0.0028
     38 C         139.4481  140.6744  163.0698 C.ar    1  UNL1        0.0206
@<TRIPOS>BOND
     1    18    19    1
     2    19     3    1
     3     3     4   ar
     4     4     5   ar
     5     5     6    1
     6     5     7   ar
     7     7     8   ar
     8     8     9   ar
     9     9    10   ar
    10    10    11   ar
    11    11    12   ar
    12    10    13    1
    13    13    14    1
    14    14    15    1
    15    15     2    1
    16     2     1    1
    17     1    20    1
    18    20    21    1
    19    21    22    1
    20    22    23   ar
    21    23    24   ar
    22    24    25   ar
    23    25    28    1
    24    28    29   ar
    25    29    30   ar
    26    30    31   ar
    27    31    32   ar
    28    32    33   ar
    29    33    34   ar
    30    34    35    1
    31    34    36   ar
    32    36    37   ar
    33    37    38   ar
    34    25    26   ar
    35    26    27    1
    36    15    16    1
    37    16    17    1
    38    12     3   ar
    39    26    22   ar
    40    12     7   ar
    41    38    28   ar
    42    17     9    1
    43    38    32   ar
@<TRIPOS>MOLECULE
*****
 38 43 0 0 0
SMALL
GASTEIGER

@<TRIPOS>ATOM
      1 C         144.7565  142.1371  157.6482 C.3     1  UNL1        0.0294
      2 C         144.4620  140.8184  158.2997 C.3     1  UNL1        0.0730
      3 C         139.3762  139.5621  165.4869 C.ar    1  UNL1        0.0800
      4 N         139.5137  140.5253  166.6285 N.ar    1  UNL1       -0.1736
      5 N         140.5514  141.5419  166.2548 N.ar    1  UNL1       -0.2492
      6 C         141.0055  142.6915  167.1045 C.3     1  UNL1        0.1537
      7 C         141.0553  141.2069  164.8823 C.ar    1  UNL1        0.0787
      8 C         142.0817  141.8580  164.0033 C.ar    1  UNL1        0.0142
      9 C         142.3817  141.2854  162.6496 C.ar    1  UNL1       -0.0232
     10 C         141.6554  140.0619  162.1751 C.ar    1  UNL1       -0.0246
     11 C         140.6290  139.4108  163.0540 C.ar    1  UNL1       -0.0018
     12 C         140.3289  139.9833  164.4077 C.ar    1  UNL1        0.0322
     13 C         141.8012  139.3344  160.8714 C.3     1  UNL1        0.0433
     14 C         142.7096  139.6510  159.7203 C.3     1  UNL1        0.0768
     15 N         143.6961  140.7730  159.5887 N.3     1  UNL1       -0.2720
     16 C         144.0183  141.8558  160.5756 C.3     1  UNL1        0.0768
     17 C         143.4333  142.0838  161.9378 C.3     1  UNL1        0.0434
     18 C         137.8214  137.8664  166.6941 C.3     1  UNL1        0.0068
     19 C         138.4487  138.3843  165.4338 C.3     1  UNL1        0.0476
     20 C         144.0504  142.5225  156.3821 C.3     1  UNL1        0.0666
     21 S         142.7127  143.1980  156.4452 S.3     1  UNL1       -0.0756
     22 C         142.0260  143.3800  157.7663 C.ar    1  UNL1        0.1932
     23 N         142.2838  144.4832  158.7495 N.ar    1  UNL1       -0.1221
     24 N         141.3781  144.2759  159.9270 N.ar    1  UNL1       -0.1282
     25 C         140.5604  143.0445  159.6716 C.ar    1  UNL1        0.1669
     26 N         140.9608  142.4908  158.3362 N.ar    1  UNL1       -0.2884
     27 C         140.3954  141.2635  157.6852 C.3     1  UNL1        0.1340
     28 C         139.5242  142.4680  160.5903 C.ar    1  UNL1        0.0374
     29 C         138.7615  141.2417  160.1850 C.ar    1  UNL1        0.0031
     30 C         137.7253  140.6652  161.1037 C.ar    1  UNL1        0.0016
     31 C         137.4518  141.3149  162.4276 C.ar    1  UNL1        0.0191
     32 C         138.2146  142.5413  162.8329 C.ar    1  UNL1        0.0810
     33 N         137.9412  143.1911  164.1569 N.ar    1  UNL1       -0.2497
     34 C         138.7039  144.4175  164.5623 C.ar    1  UNL1        0.0593
     35 C         138.4305  145.0673  165.8862 C.3     1  UNL1        0.0521
     36 C         139.7401  144.9940  163.6435 C.ar    1  UNL1        0.0147
     37 C         140.0135  144.3441  162.3195 C.ar    1  UNL1        0.0028
     38 C         139.2508  143.1178  161.9142 C.ar    1  UNL1        0.0206
@<TRIPOS>BOND
     1    18    19    1
     2    19     3    1
     3     3     4   ar
     4     4     5   ar
     5     5     6    1
     6     5     7   ar
     7     7     8   ar
     8     8     9   ar
     9     9    10   ar
    10    10    11   ar
    11    11    12   ar
    12    10    13    1
    13    13    14    1
    14    14    15    1
    15    15     2    1
    16     2     1    1
    17     1    20    1
    18    20    21    1
    19    21    22    1
    20    22    23   ar
    21    23    24   ar
    22    24    25   ar
    23    25    28    1
    24    28    29   ar
    25    29    30   ar
    26    30    31   ar
    27    31    32   ar
    28    32    33   ar
    29    33    34   ar
    30    34    35    1
    31    34    36   ar
    32    36    37   ar
    33    37    38   ar
    34    25    26   ar
    35    26    27    1
    36    15    16    1
    37    16    17    1
    38    12     3   ar
    39    26    22   ar
    40    12     7   ar
    41    38    28   ar
    42    17     9    1
    43    38    32   ar
@<TRIPOS>MOLECULE
*****
 38 43 0 0 0
SMALL
GASTEIGER

@<TRIPOS>ATOM
      1 C         143.1030  141.5469  156.5284 C.3     1  UNL1        0.0294
      2 C         142.4905  140.2667  157.0141 C.3     1  UNL1        0.0730
      3 C         139.8647  139.2516  165.4507 C.ar    1  UNL1        0.0800
      4 N         140.9065  138.9386  166.4835 N.ar    1  UNL1       -0.1736
      5 N         142.2365  138.8672  165.7934 N.ar    1  UNL1       -0.2492
      6 C         143.5548  138.5777  166.4478 C.3     1  UNL1        0.1537
      7 C         142.0166  139.1361  164.3342 C.ar    1  UNL1        0.0787
      8 C         142.9619  139.1953  163.1710 C.ar    1  UNL1        0.0142
      9 C         142.4412  139.4921  161.7959 C.ar    1  UNL1       -0.0232
     10 C         140.9755  139.7296  161.5841 C.ar    1  UNL1       -0.0246
     11 C         140.0302  139.6705  162.7472 C.ar    1  UNL1       -0.0018
     12 C         140.5508  139.3737  164.1224 C.ar    1  UNL1        0.0322
     13 C         140.2531  140.0385  160.3062 C.3     1  UNL1        0.0433
     14 C         140.8184  140.1860  158.9245 C.3     1  UNL1        0.0768
     15 N         142.2453  140.0611  158.4796 N.3     1  UNL1       -0.2720
     16 C         143.4597  139.7579  159.3064 C.3     1  UNL1        0.0768
     17 C         143.5468  139.5047  160.7823 C.3     1  UNL1        0.0434
     18 C         137.7342  138.6479  166.8095 C.3     1  UNL1        0.0068
     19 C         138.3948  139.4140  165.7020 C.3     1  UNL1        0.0476
     20 C         142.2849  142.8036  156.4926 C.3     1  UNL1        0.0666
     21 S         142.5683  143.9110  157.4639 S.3     1  UNL1       -0.0756
     22 C         142.5087  143.6479  158.9394 C.ar    1  UNL1        0.1932
     23 N         143.6746  143.3195  159.8242 N.ar    1  UNL1       -0.1221
     24 N         143.1594  143.1357  161.2209 N.ar    1  UNL1       -0.1282
     25 C         141.6750  143.3505  161.1993 C.ar    1  UNL1        0.1669
     26 N         141.2728  143.6671  159.7892 N.ar    1  UNL1       -0.2884
     27 C         139.8795  143.9526  159.3128 C.3     1  UNL1        0.1340
     28 C         140.7543  143.2639  162.3803 C.ar    1  UNL1        0.0374
     29 C         139.2794  143.4675  162.1980 C.ar    1  UNL1        0.0031
     30 C         138.3587  143.3810  163.3791 C.ar    1  UNL1        0.0016
     31 C         138.9128  143.0908  164.7424 C.ar    1  UNL1        0.0191
     32 C         140.3878  142.8872  164.9247 C.ar    1  UNL1        0.0810
     33 N         140.9420  142.5970  166.2879 N.ar    1  UNL1       -0.2497
     34 C         142.4169  142.3934  166.4703 C.ar    1  UNL1        0.0593
     35 C         142.9711  142.1032  167.8336 C.3     1  UNL1        0.0521
     36 C         143.3376  142.4800  165.2892 C.ar    1  UNL1        0.0147
     37 C         142.7833  142.7702  163.9259 C.ar    1  UNL1        0.0028
     38 C         141.3084  142.9738  163.7436 C.ar    1  UNL1        0.0206
@<TRIPOS>BOND
     1    18    19    1
     2    19     3    1
     3     3     4   ar
     4     4     5   ar
     5     5     6    1
     6     5     7   ar
     7     7     8   ar
     8     8     9   ar
     9     9    10   ar
    10    10    11   ar
    11    11    12   ar
    12    10    13    1
    13    13    14    1
    14    14    15    1
    15    15     2    1
    16     2     1    1
    17     1    20    1
    18    20    21    1
    19    21    22    1
    20    22    23   ar
    21    23    24   ar
    22    24    25   ar
    23    25    28    1
    24    28    29   ar
    25    29    30   ar
    26    30    31   ar
    27    31    32   ar
    28    32    33   ar
    29    33    34   ar
    30    34    35    1
    31    34    36   ar
    32    36    37   ar
    33    37    38   ar
    34    25    26   ar
    35    26    27    1
    36    15    16    1
    37    16    17    1
    38    12     3   ar
    39    26    22   ar
    40    12     7   ar
    41    38    28   ar
    42    17     9    1
    43    38    32   ar
@<TRIPOS>MOLECULE
*****
 38 43 0 0 0
SMALL
GASTEIGER

@<TRIPOS>ATOM
      1 C         139.5593  139.0890  156.5989 C.3     1  UNL1        0.0294
      2 C         140.9892  138.9925  157.0420 C.3     1  UNL1        0.0730
      3 C         143.0108  140.5987  165.5527 C.ar    1  UNL1        0.0800
      4 N         143.5249  141.9609  165.9132 N.ar    1  UNL1       -0.1736
      5 N         143.5777  142.7831  164.6597 N.ar    1  UNL1       -0.2492
      6 C         144.0322  144.2090  164.5592 C.3     1  UNL1        0.1537
      7 C         143.0962  141.9290  163.5246 C.ar    1  UNL1        0.0787
      8 C         142.9316  142.2062  162.0596 C.ar    1  UNL1        0.0142
      9 C         142.4165  141.1332  161.1465 C.ar    1  UNL1       -0.0232
     10 C         142.0661  139.7833  161.6984 C.ar    1  UNL1       -0.0246
     11 C         142.2307  139.5061  163.1633 C.ar    1  UNL1       -0.0018
     12 C         142.7458  140.5789  164.0764 C.ar    1  UNL1        0.0322
     13 C         141.5408  138.5823  160.9691 C.3     1  UNL1        0.0433
     14 C         141.2362  138.4349  159.5077 C.3     1  UNL1        0.0768
     15 N         141.3816  139.4519  158.4149 N.3     1  UNL1       -0.2720
     16 C         141.8676  140.8676  158.5133 C.3     1  UNL1        0.0768
     17 C         142.3282  141.6159  159.7290 C.3     1  UNL1        0.0434
     18 C         143.6478  138.2247  166.3943 C.3     1  UNL1        0.0068
     19 C         142.7988  139.4566  166.5018 C.3     1  UNL1        0.0476
     20 C         138.9539  140.4296  156.3051 C.3     1  UNL1        0.0666
     21 S         137.8749  140.9759  157.1923 S.3     1  UNL1       -0.0756
     22 C         138.0410  140.9428  158.6827 C.ar    1  UNL1        0.1932
     23 N         137.6290  139.8226  159.5911 N.ar    1  UNL1       -0.1221
     24 N         137.9816  140.2116  160.9963 N.ar    1  UNL1       -0.1282
     25 C         138.6116  141.5723  160.9562 C.ar    1  UNL1        0.1669
     26 N         138.6483  142.0242  159.5263 N.ar    1  UNL1       -0.2884
     27 C         139.1961  143.3286  159.0277 C.3     1  UNL1        0.1340
     28 C         139.1163  142.3453  162.1384 C.ar    1  UNL1        0.0374
     29 C         139.5833  143.7603  161.9654 C.ar    1  UNL1        0.0031
     30 C         140.0880  144.5333  163.1477 C.ar    1  UNL1        0.0016
     31 C         140.1257  143.8915  164.5029 C.ar    1  UNL1        0.0191
     32 C         139.6587  142.4766  164.6759 C.ar    1  UNL1        0.0810
     33 N         139.6963  141.8348  166.0310 N.ar    1  UNL1       -0.2497
     34 C         139.2293  140.4198  166.2041 C.ar    1  UNL1        0.0593
     35 C         139.2670  139.7780  167.5593 C.3     1  UNL1        0.0521
     36 C         138.7246  139.6468  165.0218 C.ar    1  UNL1        0.0147
     37 C         138.6870  140.2886  163.6666 C.ar    1  UNL1        0.0028
     38 C         139.1540  141.7036  163.4936 C.ar    1  UNL1        0.0206
@<TRIPOS>BOND
     1    18    19    1
     2    19     3    1
     3     3     4   ar
     4     4     5   ar
     5     5     6    1
     6     5     7   ar
     7     7     8   ar
     8     8     9   ar
     9     9    10   ar
    10    10    11   ar
    11    11    12   ar
    12    10    13    1
    13    13    14    1
    14    14    15    1
    15    15     2    1
    16     2     1    1
    17     1    20    1
    18    20    21    1
    19    21    22    1
    20    22    23   ar
    21    23    24   ar
    22    24    25   ar
    23    25    28    1
    24    28    29   ar
    25    29    30   ar
    26    30    31   ar
    27    31    32   ar
    28    32    33   ar
    29    33    34   ar
    30    34    35    1
    31    34    36   ar
    32    36    37   ar
    33    37    38   ar
    34    25    26   ar
    35    26    27    1
    36    15    16    1
    37    16    17    1
    38    12     3   ar
    39    26    22   ar
    40    12     7   ar
    41    38    28   ar
    42    17     9    1
    43    38    32   ar
