@<TRIPOS>MOLECULE
*****
 27 29 0 0 0
SMALL
GASTEIGER

@<TRIPOS>ATOM
      1 C         138.2187  140.8969  161.9568 C.3     1  UNL1        0.0964
      2 C         138.2214  140.3158  160.5740 C.3     1  UNL1        0.0901
      3 N         139.2467  139.2216  160.5329 N.3     1  UNL1       -0.2700
      4 C         139.5821  138.3718  159.3433 C.3     1  UNL1        0.0897
      5 C         139.8776  139.1266  161.8904 C.3     1  UNL1        0.0780
      6 C         139.2423  140.1620  162.7705 C.3     1  UNL1        0.0557
      7 C         139.5727  140.4175  164.2112 C.ar    1  UNL1       -0.0197
      8 C         140.6970  141.3431  164.5701 C.ar    1  UNL1       -0.0042
      9 C         141.0273  141.5986  166.0108 C.ar    1  UNL1       -0.0002
     10 C         140.2332  140.9284  167.0926 C.ar    1  UNL1        0.0037
     11 C         139.1089  140.0027  166.7337 C.ar    1  UNL1       -0.0002
     12 C         138.7786  139.7472  165.2930 C.ar    1  UNL1       -0.0042
     13 C         140.5636  141.1839  168.5333 C.ar    1  UNL1        0.0460
     14 C         140.9895  140.0497  169.4177 C.ar    1  UNL1        0.0054
     15 C         141.3198  140.3052  170.8584 C.ar    1  UNL1        0.0208
     16 C         141.2242  141.6949  171.4147 C.ar    1  UNL1        0.1013
     17 N         140.7983  142.8292  170.5302 N.ar    1  UNL1       -0.2165
     18 C         140.4680  142.5736  169.0896 C.ar    1  UNL1        0.2222
     19 F         140.0421  143.7079  168.2051 F       1  UNL1       -0.1832
     20 N         137.3457  142.0164  162.4410 N.3     1  UNL1       -0.1830
     21 H         136.7560  142.2909  161.6553 H       1  UNL1        0.1484
     22 S         137.9653  143.2729  162.9769 S.O2    1  UNL1        0.0390
     23 O         137.4937  142.9173  164.3558 O.2     1  UNL1       -0.1576
     24 O         138.4368  143.6285  161.5981 O.2     1  UNL1       -0.1576
     25 C         139.1925  145.5267  162.5716 C.3     1  UNL1        0.0270
     26 C         138.5849  144.5294  163.5129 C.3     1  UNL1        0.1457
     27 C         138.5970  144.7885  164.9903 C.3     1  UNL1        0.0270
@<TRIPOS>BOND
     1    25    26    1
     2    26    27    1
     3    26    22    1
     4    22    23    2
     5    22    24    2
     6    22    20    1
     7     1    20    1
     8     1     2    1
     9     2     3    1
    10     3     4    1
    11     3     5    1
    12     5     6    1
    13     6     7    1
    14     7     8   ar
    15     8     9   ar
    16     9    10   ar
    17    10    13    1
    18    13    14   ar
    19    14    15   ar
    20    15    16   ar
    21    16    17   ar
    22    17    18   ar
    23    18    19    1
    24    10    11   ar
    25    11    12   ar
    26     6     1    1
    27    12     7   ar
    28    18    13   ar
    29    20    21    1
@<TRIPOS>MOLECULE
*****
 27 29 0 0 0
SMALL
GASTEIGER

@<TRIPOS>ATOM
      1 C         141.7823  144.3644  161.3319 C.3     1  UNL1        0.0964
      2 C         141.4878  144.5728  159.8759 C.3     1  UNL1        0.0901
      3 N         140.2374  143.8142  159.5427 N.3     1  UNL1       -0.2700
      4 C         139.5806  143.7450  158.1959 C.3     1  UNL1        0.0897
      5 C         139.7590  143.1370  160.7927 C.3     1  UNL1        0.0780
      6 C         140.7138  143.4771  161.8985 C.3     1  UNL1        0.0557
      7 C         140.6171  143.0115  163.3212 C.ar    1  UNL1       -0.0197
      8 C         141.1602  141.6682  163.7093 C.ar    1  UNL1       -0.0042
      9 C         141.0635  141.2027  165.1319 C.ar    1  UNL1       -0.0002
     10 C         140.4237  142.0805  166.1664 C.ar    1  UNL1        0.0037
     11 C         139.8806  143.4237  165.7783 C.ar    1  UNL1       -0.0002
     12 C         139.9773  143.8892  164.3557 C.ar    1  UNL1       -0.0042
     13 C         140.3270  141.6149  167.5891 C.ar    1  UNL1        0.0460
     14 C         140.9482  142.4258  168.6875 C.ar    1  UNL1        0.0054
     15 C         140.8515  141.9602  170.1102 C.ar    1  UNL1        0.0208
     16 C         140.1336  140.6837  170.4344 C.ar    1  UNL1        0.1013
     17 N         139.5124  139.8727  169.3359 N.ar    1  UNL1       -0.2165
     18 C         139.6091  140.3383  167.9133 C.ar    1  UNL1        0.2222
     19 F         138.9880  139.5274  166.8149 F       1  UNL1       -0.1832
     20 N         142.9416  144.9420  162.0884 N.3     1  UNL1       -0.1830
     21 H         143.5897  145.3146  161.3944 H       1  UNL1        0.1484
     22 S         143.7455  144.0716  163.0082 S.O2    1  UNL1        0.0390
     23 O         143.3586  144.9403  164.1683 O.2     1  UNL1       -0.1576
     24 O         144.1324  143.2030  161.8483 O.2     1  UNL1       -0.1576
     25 C         144.4861  143.4178  165.4111 C.3     1  UNL1        0.0270
     26 C         144.5494  143.2013  163.9282 C.3     1  UNL1        0.1457
     27 C         145.4165  142.1146  163.3652 C.3     1  UNL1        0.0270
@<TRIPOS>BOND
     1    25    26    1
     2    26    27    1
     3    26    22    1
     4    22    23    2
     5    22    24    2
     6    22    20    1
     7     1    20    1
     8     1     2    1
     9     2     3    1
    10     3     4    1
    11     3     5    1
    12     5     6    1
    13     6     7    1
    14     7     8   ar
    15     8     9   ar
    16     9    10   ar
    17    10    13    1
    18    13    14   ar
    19    14    15   ar
    20    15    16   ar
    21    16    17   ar
    22    17    18   ar
    23    18    19    1
    24    10    11   ar
    25    11    12   ar
    26     6     1    1
    27    12     7   ar
    28    18    13   ar
    29    20    21    1
@<TRIPOS>MOLECULE
*****
 27 29 0 0 0
SMALL
GASTEIGER

@<TRIPOS>ATOM
      1 C         144.2499  139.8416  161.9458 C.3     1  UNL1        0.0964
      2 C         144.2083  139.2454  160.5700 C.3     1  UNL1        0.0901
      3 N         143.0278  138.3225  160.5003 N.3     1  UNL1       -0.2700
      4 C         142.6088  137.5155  159.3074 C.3     1  UNL1        0.0897
      5 C         142.3399  138.3484  161.8330 C.3     1  UNL1        0.0780
      6 C         143.0952  139.2873  162.7264 C.3     1  UNL1        0.0557
      7 C         142.7554  139.6143  164.1504 C.ar    1  UNL1       -0.0197
      8 C         143.4148  138.8649  165.2699 C.ar    1  UNL1       -0.0042
      9 C         143.0750  139.1919  166.6938 C.ar    1  UNL1       -0.0002
     10 C         142.0757  140.2684  166.9981 C.ar    1  UNL1        0.0037
     11 C         141.4163  141.0179  165.8786 C.ar    1  UNL1       -0.0002
     12 C         141.7561  140.6908  164.4547 C.ar    1  UNL1       -0.0042
     13 C         141.7359  140.5955  168.4221 C.ar    1  UNL1        0.0460
     14 C         140.5877  139.9052  169.0967 C.ar    1  UNL1        0.0054
     15 C         140.2478  140.2323  170.5207 C.ar    1  UNL1        0.0208
     16 C         141.0563  141.2496  171.2700 C.ar    1  UNL1        0.1013
     17 N         142.2046  141.9399  170.5953 N.ar    1  UNL1       -0.2165
     18 C         142.5443  141.6128  169.1714 C.ar    1  UNL1        0.2222
     19 F         143.6926  142.3031  168.4968 F       1  UNL1       -0.1832
     20 N         145.2676  140.8204  162.4521 N.3     1  UNL1       -0.1830
     21 H         145.8490  140.3195  163.1240 H       1  UNL1        0.1484
     22 S         144.8223  142.0857  163.1234 S.O2    1  UNL1        0.0390
     23 O         145.5666  141.6894  164.3640 O.2     1  UNL1       -0.1576
     24 O         144.0781  142.4820  161.8829 O.2     1  UNL1       -0.1576
     25 C         143.9757  144.5371  162.9689 C.3     1  UNL1        0.0270
     26 C         144.3771  143.3510  163.7948 C.3     1  UNL1        0.1457
     27 C         144.3332  143.4302  165.2920 C.3     1  UNL1        0.0270
@<TRIPOS>BOND
     1    25    26    1
     2    26    27    1
     3    26    22    1
     4    22    23    2
     5    22    24    2
     6    22    20    1
     7     1    20    1
     8     1     2    1
     9     2     3    1
    10     3     4    1
    11     3     5    1
    12     5     6    1
    13     6     7    1
    14     7     8   ar
    15     8     9   ar
    16     9    10   ar
    17    10    13    1
    18    13    14   ar
    19    14    15   ar
    20    15    16   ar
    21    16    17   ar
    22    17    18   ar
    23    18    19    1
    24    10    11   ar
    25    11    12   ar
    26     6     1    1
    27    12     7   ar
    28    18    13   ar
    29    20    21    1
@<TRIPOS>MOLECULE
*****
 27 29 0 0 0
SMALL
GASTEIGER

@<TRIPOS>ATOM
      1 C         138.1233  140.5656  161.8079 C.3     1  UNL1        0.0964
      2 C         138.0848  140.1229  160.3752 C.3     1  UNL1        0.0901
      3 N         139.1994  139.1416  160.1632 N.3     1  UNL1       -0.2700
      4 C         139.5288  138.4462  158.8756 C.3     1  UNL1        0.0897
      5 C         139.9266  138.9778  161.4648 C.3     1  UNL1        0.0780
      6 C         139.2615  139.8578  162.4813 C.3     1  UNL1        0.0557
      7 C         139.6641  140.0044  163.9189 C.ar    1  UNL1       -0.0197
      8 C         138.9380  139.2362  164.9831 C.ar    1  UNL1       -0.0042
      9 C         139.3406  139.3828  166.4206 C.ar    1  UNL1       -0.0002
     10 C         140.4693  140.2975  166.7939 C.ar    1  UNL1        0.0037
     11 C         141.1954  141.0657  165.7296 C.ar    1  UNL1       -0.0002
     12 C         140.7928  140.9192  164.2921 C.ar    1  UNL1       -0.0042
     13 C         140.8719  140.4441  168.2314 C.ar    1  UNL1        0.0460
     14 C         140.0232  141.2501  169.1695 C.ar    1  UNL1        0.0054
     15 C         140.4258  141.3967  170.6071 C.ar    1  UNL1        0.0208
     16 C         141.6770  140.7372  171.1065 C.ar    1  UNL1        0.1013
     17 N         142.5257  139.9311  170.1683 N.ar    1  UNL1       -0.2165
     18 C         142.1231  139.7846  168.7308 C.ar    1  UNL1        0.2222
     19 F         142.9718  138.9786  167.7927 F       1  UNL1       -0.1832
     20 N         137.1878  141.5442  162.4537 N.3     1  UNL1       -0.1830
     21 H         136.4763  141.7734  161.7597 H       1  UNL1        0.1484
     22 S         137.7121  142.8462  162.9826 S.O2    1  UNL1        0.0390
     23 O         137.4642  142.3762  164.3853 O.2     1  UNL1       -0.1576
     24 O         137.9600  143.3161  161.5799 O.2     1  UNL1       -0.1576
     25 C         138.8768  145.1332  162.5790 C.3     1  UNL1        0.0270
     26 C         138.2364  144.1482  163.5115 C.3     1  UNL1        0.1457
     27 C         138.1203  144.4653  164.9730 C.3     1  UNL1        0.0270
@<TRIPOS>BOND
     1    25    26    1
     2    26    27    1
     3    26    22    1
     4    22    23    2
     5    22    24    2
     6    22    20    1
     7     1    20    1
     8     1     2    1
     9     2     3    1
    10     3     4    1
    11     3     5    1
    12     5     6    1
    13     6     7    1
    14     7     8   ar
    15     8     9   ar
    16     9    10   ar
    17    10    13    1
    18    13    14   ar
    19    14    15   ar
    20    15    16   ar
    21    16    17   ar
    22    17    18   ar
    23    18    19    1
    24    10    11   ar
    25    11    12   ar
    26     6     1    1
    27    12     7   ar
    28    18    13   ar
    29    20    21    1
@<TRIPOS>MOLECULE
*****
 27 29 0 0 0
SMALL
GASTEIGER

@<TRIPOS>ATOM
      1 C         144.1568  139.9306  161.7549 C.3     1  UNL1        0.0964
      2 C         144.1280  139.4690  160.3280 C.3     1  UNL1        0.0901
      3 N         142.9146  138.6065  160.1442 N.3     1  UNL1       -0.2700
      4 C         142.4958  137.9336  158.8708 C.3     1  UNL1        0.0897
      5 C         142.1934  138.5352  161.4576 C.3     1  UNL1        0.0780
      6 C         142.9612  139.3536  162.4530 C.3     1  UNL1        0.0557
      7 C         142.5972  139.5588  163.8937 C.ar    1  UNL1       -0.0197
      8 C         143.2161  138.6968  164.9538 C.ar    1  UNL1       -0.0042
      9 C         142.8520  138.9021  166.3943 C.ar    1  UNL1       -0.0002
     10 C         141.8691  139.9693  166.7748 C.ar    1  UNL1        0.0037
     11 C         141.2501  140.8313  165.7147 C.ar    1  UNL1       -0.0002
     12 C         141.6142  140.6260  164.2741 C.ar    1  UNL1       -0.0042
     13 C         141.5050  140.1745  168.2155 C.ar    1  UNL1        0.0460
     14 C         142.5448  140.6351  169.1935 C.ar    1  UNL1        0.0054
     15 C         142.1808  140.8403  170.6342 C.ar    1  UNL1        0.0208
     16 C         140.7769  140.5849  171.0967 C.ar    1  UNL1        0.1013
     17 N         139.7371  140.1243  170.1186 N.ar    1  UNL1       -0.2165
     18 C         140.1012  139.9191  168.6780 C.ar    1  UNL1        0.2222
     19 F         139.0613  139.4585  167.6999 F       1  UNL1       -0.1832
     20 N         145.1984  140.8143  162.3748 N.3     1  UNL1       -0.1830
     21 H         145.7075  140.2416  163.0481 H       1  UNL1        0.1484
     22 S         144.7894  142.0660  163.0928 S.O2    1  UNL1        0.0390
     23 O         145.3737  141.5272  164.3650 O.2     1  UNL1       -0.1576
     24 O         144.2051  142.6049  161.8208 O.2     1  UNL1       -0.1576
     25 C         144.3549  143.3480  165.3104 C.3     1  UNL1        0.0270
     26 C         144.3804  143.3178  163.8110 C.3     1  UNL1        0.1457
     27 C         143.9969  144.5395  163.0296 C.3     1  UNL1        0.0270
@<TRIPOS>BOND
     1    25    26    1
     2    26    27    1
     3    26    22    1
     4    22    23    2
     5    22    24    2
     6    22    20    1
     7     1    20    1
     8     1     2    1
     9     2     3    1
    10     3     4    1
    11     3     5    1
    12     5     6    1
    13     6     7    1
    14     7     8   ar
    15     8     9   ar
    16     9    10   ar
    17    10    13    1
    18    13    14   ar
    19    14    15   ar
    20    15    16   ar
    21    16    17   ar
    22    17    18   ar
    23    18    19    1
    24    10    11   ar
    25    11    12   ar
    26     6     1    1
    27    12     7   ar
    28    18    13   ar
    29    20    21    1
@<TRIPOS>MOLECULE
*****
 27 29 0 0 0
SMALL
GASTEIGER

@<TRIPOS>ATOM
      1 C         139.2417  143.3472  160.9104 C.3     1  UNL1        0.0964
      2 C         139.6639  143.9402  159.5989 C.3     1  UNL1        0.0901
      3 N         141.0308  144.5321  159.7764 N.3     1  UNL1       -0.2700
      4 C         141.8340  145.2287  158.7184 C.3     1  UNL1        0.0897
      5 C         141.4532  144.3049  161.1976 C.3     1  UNL1        0.0780
      6 C         140.3475  143.5727  161.8985 C.3     1  UNL1        0.0557
      7 C         140.3476  143.1415  163.3353 C.ar    1  UNL1       -0.0197
      8 C         141.2125  141.9976  163.7750 C.ar    1  UNL1       -0.0042
      9 C         141.2126  141.5665  165.2117 C.ar    1  UNL1       -0.0002
     10 C         140.3478  142.2794  166.2087 C.ar    1  UNL1        0.0037
     11 C         139.4830  143.4233  165.7690 C.ar    1  UNL1       -0.0002
     12 C         139.4829  143.8544  164.3323 C.ar    1  UNL1       -0.0042
     13 C         140.3480  141.8483  167.6454 C.ar    1  UNL1        0.0460
     14 C         140.7622  142.8120  168.7176 C.ar    1  UNL1        0.0054
     15 C         140.7624  142.3808  170.1544 C.ar    1  UNL1        0.0208
     16 C         140.3482  140.9860  170.5189 C.ar    1  UNL1        0.1013
     17 N         139.9339  140.0223  169.4466 N.ar    1  UNL1       -0.2165
     18 C         139.9338  140.4534  168.0099 C.ar    1  UNL1        0.2222
     19 F         139.5195  139.4897  166.9377 F       1  UNL1       -0.1832
     20 N         137.9418  142.6511  161.1856 N.3     1  UNL1       -0.1830
     21 H         137.4026  143.2649  161.7962 H       1  UNL1        0.1484
     22 S         137.9382  141.2936  161.8236 S.O2    1  UNL1        0.0390
     23 O         138.8542  140.7864  160.7495 O.2     1  UNL1       -0.1576
     24 O         137.0223  141.8008  162.8977 O.2     1  UNL1       -0.1576
     25 C         137.6769  138.7162  161.6277 C.3     1  UNL1        0.0270
     26 C         137.9347  139.9361  162.4616 C.3     1  UNL1        0.1457
     27 C         138.1891  139.7984  163.9334 C.3     1  UNL1        0.0270
@<TRIPOS>BOND
     1    25    26    1
     2    26    27    1
     3    26    22    1
     4    22    23    2
     5    22    24    2
     6    22    20    1
     7     1    20    1
     8     1     2    1
     9     2     3    1
    10     3     4    1
    11     3     5    1
    12     5     6    1
    13     6     7    1
    14     7     8   ar
    15     8     9   ar
    16     9    10   ar
    17    10    13    1
    18    13    14   ar
    19    14    15   ar
    20    15    16   ar
    21    16    17   ar
    22    17    18   ar
    23    18    19    1
    24    10    11   ar
    25    11    12   ar
    26     6     1    1
    27    12     7   ar
    28    18    13   ar
    29    20    21    1
@<TRIPOS>MOLECULE
*****
 27 29 0 0 0
SMALL
GASTEIGER

@<TRIPOS>ATOM
      1 C         142.6627  138.5424  161.2148 C.3     1  UNL1        0.0964
      2 C         143.0586  138.7376  159.7813 C.3     1  UNL1        0.0901
      3 N         143.7746  140.0513  159.6728 N.3     1  UNL1       -0.2700
      4 C         144.3440  140.6441  158.4181 C.3     1  UNL1        0.0897
      5 C         143.8211  140.6680  161.0394 C.3     1  UNL1        0.0780
      6 C         143.1339  139.7354  161.9924 C.3     1  UNL1        0.0557
      7 C         142.9503  139.9571  163.4646 C.ar    1  UNL1       -0.0197
      8 C         141.9885  141.0000  163.9518 C.ar    1  UNL1       -0.0042
      9 C         141.8049  141.2215  165.4239 C.ar    1  UNL1       -0.0002
     10 C         142.5830  140.4003  166.4088 C.ar    1  UNL1        0.0037
     11 C         143.5447  139.3574  165.9216 C.ar    1  UNL1       -0.0002
     12 C         143.7284  139.1358  164.4495 C.ar    1  UNL1       -0.0042
     13 C         142.3993  140.6219  167.8810 C.ar    1  UNL1        0.0460
     14 C         141.5826  139.6571  168.6885 C.ar    1  UNL1        0.0054
     15 C         141.3989  139.8788  170.1607 C.ar    1  UNL1        0.0208
     16 C         142.0320  141.0652  170.8252 C.ar    1  UNL1        0.1013
     17 N         142.8487  142.0300  170.0176 N.ar    1  UNL1       -0.2165
     18 C         143.0324  141.8083  168.5455 C.ar    1  UNL1        0.2222
     19 F         143.8491  142.7731  167.7379 F       1  UNL1       -0.1832
     20 N         141.9250  137.3616  161.7728 N.3     1  UNL1       -0.1830
     21 H         141.7624  136.7217  160.9953 H       1  UNL1        0.1484
     22 S         140.6042  137.5568  162.4563 S.O2    1  UNL1        0.0390
     23 O         141.1614  136.9452  163.7076 O.2     1  UNL1       -0.1576
     24 O         140.0471  138.1684  161.2052 O.2     1  UNL1       -0.1576
     25 C         139.1929  137.6672  164.6349 C.3     1  UNL1        0.0270
     26 C         139.2834  137.7520  163.1400 C.3     1  UNL1        0.1457
     27 C         138.0532  138.0320  162.3288 C.3     1  UNL1        0.0270
@<TRIPOS>BOND
     1    25    26    1
     2    26    27    1
     3    26    22    1
     4    22    23    2
     5    22    24    2
     6    22    20    1
     7     1    20    1
     8     1     2    1
     9     2     3    1
    10     3     4    1
    11     3     5    1
    12     5     6    1
    13     6     7    1
    14     7     8   ar
    15     8     9   ar
    16     9    10   ar
    17    10    13    1
    18    13    14   ar
    19    14    15   ar
    20    15    16   ar
    21    16    17   ar
    22    17    18   ar
    23    18    19    1
    24    10    11   ar
    25    11    12   ar
    26     6     1    1
    27    12     7   ar
    28    18    13   ar
    29    20    21    1
@<TRIPOS>MOLECULE
*****
 27 29 0 0 0
SMALL
GASTEIGER

@<TRIPOS>ATOM
      1 C         143.3264  142.8704  160.7299 C.3     1  UNL1        0.0964
      2 C         142.8998  143.6160  159.5002 C.3     1  UNL1        0.0901
      3 N         141.7767  144.5345  159.8812 N.3     1  UNL1       -0.2700
      4 C         141.0490  145.4672  158.9590 C.3     1  UNL1        0.0897
      5 C         141.5092  144.3566  161.3464 C.3     1  UNL1        0.0780
      6 C         142.4669  143.3281  161.8709 C.3     1  UNL1        0.0557
      7 C         142.5505  142.8426  163.2877 C.ar    1  UNL1       -0.0197
      8 C         141.5512  141.8481  163.7999 C.ar    1  UNL1       -0.0042
      9 C         141.6348  141.3626  165.2167 C.ar    1  UNL1       -0.0002
     10 C         142.7177  141.8716  166.1213 C.ar    1  UNL1        0.0037
     11 C         143.7170  142.8661  165.6091 C.ar    1  UNL1       -0.0002
     12 C         143.6334  143.3516  164.1923 C.ar    1  UNL1       -0.0042
     13 C         142.8013  141.3861  167.5381 C.ar    1  UNL1        0.0460
     14 C         142.9839  142.3675  168.6577 C.ar    1  UNL1        0.0054
     15 C         143.0675  141.8820  170.0745 C.ar    1  UNL1        0.0208
     16 C         142.9684  140.4150  170.3717 C.ar    1  UNL1        0.1013
     17 N         142.7858  139.4336  169.2520 N.ar    1  UNL1       -0.2165
     18 C         142.7023  139.9192  167.8353 C.ar    1  UNL1        0.2222
     19 F         142.5197  138.9378  166.7156 F       1  UNL1       -0.1832
     20 N         144.4203  141.8469  160.8053 N.3     1  UNL1       -0.1830
     21 H         144.5724  141.5081  159.8554 H       1  UNL1        0.1484
     22 S         144.2562  140.6364  161.6757 S.O2    1  UNL1        0.0390
     23 O         143.1048  140.1829  160.8279 O.2     1  UNL1       -0.1576
     24 O         145.4075  141.0898  162.5235 O.2     1  UNL1       -0.1576
     25 C         144.6037  139.4407  163.9559 C.3     1  UNL1        0.0270
     26 C         144.0920  139.4258  162.5460 C.3     1  UNL1        0.1457
     27 C         143.4160  138.2003  162.0065 C.3     1  UNL1        0.0270
@<TRIPOS>BOND
     1    25    26    1
     2    26    27    1
     3    26    22    1
     4    22    23    2
     5    22    24    2
     6    22    20    1
     7     1    20    1
     8     1     2    1
     9     2     3    1
    10     3     4    1
    11     3     5    1
    12     5     6    1
    13     6     7    1
    14     7     8   ar
    15     8     9   ar
    16     9    10   ar
    17    10    13    1
    18    13    14   ar
    19    14    15   ar
    20    15    16   ar
    21    16    17   ar
    22    17    18   ar
    23    18    19    1
    24    10    11   ar
    25    11    12   ar
    26     6     1    1
    27    12     7   ar
    28    18    13   ar
    29    20    21    1
@<TRIPOS>MOLECULE
*****
 27 29 0 0 0
SMALL
GASTEIGER

@<TRIPOS>ATOM
      1 C         141.8549  144.0181  161.3132 C.3     1  UNL1        0.0964
      2 C         142.0038  144.0211  159.8206 C.3     1  UNL1        0.0901
      3 N         142.6591  142.7334  159.4175 N.3     1  UNL1       -0.2700
      4 C         142.9987  142.3176  158.0168 C.3     1  UNL1        0.0897
      5 C         142.9150  141.9345  160.6609 C.3     1  UNL1        0.0780
      6 C         142.4180  142.7284  161.8325 C.3     1  UNL1        0.0557
      7 C         142.4742  142.3067  163.2710 C.ar    1  UNL1       -0.0197
      8 C         143.6710  142.6509  164.1072 C.ar    1  UNL1       -0.0042
      9 C         143.7272  142.2292  165.5455 C.ar    1  UNL1       -0.0002
     10 C         142.5867  141.4634  166.1477 C.ar    1  UNL1        0.0037
     11 C         141.3899  141.1193  165.3116 C.ar    1  UNL1       -0.0002
     12 C         141.3337  141.5409  163.8732 C.ar    1  UNL1       -0.0042
     13 C         142.6429  141.0417  167.5862 C.ar    1  UNL1        0.0460
     14 C         142.6094  142.0753  168.6726 C.ar    1  UNL1        0.0054
     15 C         142.6657  141.6536  170.1111 C.ar    1  UNL1        0.0208
     16 C         142.7554  140.1983  170.4630 C.ar    1  UNL1        0.1013
     17 N         142.7889  139.1646  169.3765 N.ar    1  UNL1       -0.2165
     18 C         142.7327  139.5863  167.9381 C.ar    1  UNL1        0.2222
     19 F         142.7662  138.5526  166.8516 F       1  UNL1       -0.1832
     20 N         141.2491  145.1125  162.1410 N.3     1  UNL1       -0.1830
     21 H         141.9709  145.4238  162.7911 H       1  UNL1        0.1484
     22 S         140.0192  144.8432  162.9562 S.O2    1  UNL1        0.0390
     23 O         140.7974  145.0949  164.2135 O.2     1  UNL1       -0.1576
     24 O         139.2409  144.5914  161.6989 O.2     1  UNL1       -0.1576
     25 C         138.7734  144.9005  165.2354 C.3     1  UNL1        0.0270
     26 C         138.7892  144.5739  163.7715 C.3     1  UNL1        0.1457
     27 C         137.5751  143.9779  163.1229 C.3     1  UNL1        0.0270
@<TRIPOS>BOND
     1    25    26    1
     2    26    27    1
     3    26    22    1
     4    22    23    2
     5    22    24    2
     6    22    20    1
     7     1    20    1
     8     1     2    1
     9     2     3    1
    10     3     4    1
    11     3     5    1
    12     5     6    1
    13     6     7    1
    14     7     8   ar
    15     8     9   ar
    16     9    10   ar
    17    10    13    1
    18    13    14   ar
    19    14    15   ar
    20    15    16   ar
    21    16    17   ar
    22    17    18   ar
    23    18    19    1
    24    10    11   ar
    25    11    12   ar
    26     6     1    1
    27    12     7   ar
    28    18    13   ar
    29    20    21    1
