@<TRIPOS>MOLECULE
*****
 33 36 0 0 0
SMALL
GASTEIGER

@<TRIPOS>ATOM
      1 N         140.8205  142.2170  166.9975 N.ar    1  UNL1       -0.2874
      2 C         140.8548  142.7328  168.4056 C.ar    1  UNL1        0.0858
      3 C         140.1296  141.9957  169.4922 C.ar    1  UNL1        0.0705
      4 C         139.3701  140.7428  169.1707 C.ar    1  UNL1        0.1996
      5 O         138.6448  140.0057  170.2574 O.2     1  UNL1       -0.2864
      6 C         139.3357  140.2270  167.7626 C.ar    1  UNL1        0.0582
      7 C         138.5762  138.9741  167.4411 C.ar    1  UNL1        0.0340
      8 C         138.5419  138.4583  166.0331 C.ar    1  UNL1        0.1371
      9 F         137.7823  137.2054  165.7116 F       1  UNL1       -0.2045
     10 C         139.2671  139.1954  164.9464 C.ar    1  UNL1        0.0171
     11 C         140.0267  140.4483  165.2679 C.ar    1  UNL1        0.0720
     12 CL        140.7519  141.1854  164.1813 Cl      1  UNL1       -0.0810
     13 C         140.0610  140.9641  166.6760 C.ar    1  UNL1        0.0788
     14 N         140.8211  145.7306  163.1694 N.pl3   1  UNL1       -0.3408
     15 C         141.5461  144.7109  163.9968 C.ar    1  UNL1        0.1548
     16 N         140.8208  143.9738  165.0834 N.ar    1  UNL1       -0.2091
     17 C         141.5457  142.9541  165.9109 C.ar    1  UNL1        0.1769
     18 C         142.9959  142.6714  165.6517 C.ar    1  UNL1        0.1767
     19 F         143.7208  141.6516  166.4791 F       1  UNL1       -0.2009
     20 C         143.7211  143.4084  164.5651 C.ar    1  UNL1        0.0652
     21 C         142.9962  144.4282  163.7376 C.ar    1  UNL1        0.1734
     22 F         143.7214  145.1652  162.6510 F       1  UNL1       -0.2012
     23 H         139.8694  145.9161  163.3395 H       1  UNL1        0.1438
     24 H         141.2971  146.2143  162.4562 H       1  UNL1        0.1438
     25 C         139.2328  138.6796  163.5383 C.3     1  UNL1        0.0302
     26 C         140.0421  137.6927  162.7502 C.3     1  UNL1        0.0338
     27 C         139.1842  137.9501  161.5469 C.3     1  UNL1        0.1112
     28 O         139.1499  137.4343  160.1388 O.3     1  UNL1       -0.3844
     29 C         138.3749  138.9370  162.3350 C.3     1  UNL1        0.0338
     30 H         138.4237  137.8596  159.6563 H       1  UNL1        0.2103
     31 C         140.1639  142.5114  170.9004 C.2     1  UNL1        0.0774
     32 O         141.3028  142.1459  171.8054 O.co2   1  UNL1       -0.5444
     33 O         139.0592  143.3927  171.4034 O.co2   1  UNL1       -0.5444
@<TRIPOS>UNITY_ATOM_ATTR
32 1
charge -1
@<TRIPOS>BOND
     1    14    15    1
     2    15    16   ar
     3    16    17   ar
     4    17     1    1
     5     1     2   ar
     6     2     3   ar
     7     3    31    1
     8    31    32   ar
     9    31    33   ar
    10     3     4   ar
    11     4     5    2
    12     4     6   ar
    13     6     7   ar
    14     7     8   ar
    15     8     9    1
    16     8    10   ar
    17    25    10    1
    18    25    26    1
    19    26    27    1
    20    27    28    1
    21    27    29    1
    22    10    11   ar
    23    11    12    1
    24    11    13   ar
    25    17    18   ar
    26    18    19    1
    27    18    20   ar
    28    20    21   ar
    29    21    22    1
    30    21    15   ar
    31    13     1   ar
    32    13     6   ar
    33    29    25    1
    34    14    23    1
    35    14    24    1
    36    28    30    1
@<TRIPOS>MOLECULE
*****
 33 36 0 0 0
SMALL
GASTEIGER

@<TRIPOS>ATOM
      1 N         140.6625  142.1739  167.0736 N.ar    1  UNL1       -0.2874
      2 C         140.6835  142.6881  168.4825 C.ar    1  UNL1        0.0858
      3 C         139.9630  141.9399  169.5647 C.ar    1  UNL1        0.0705
      4 C         139.2216  140.6776  169.2380 C.ar    1  UNL1        0.1996
      5 O         138.5011  139.9294  170.3202 O.2     1  UNL1       -0.2864
      6 C         139.2006  140.1634  167.8290 C.ar    1  UNL1        0.0582
      7 C         138.4591  138.9011  167.5023 C.ar    1  UNL1        0.0340
      8 C         138.4381  138.3869  166.0934 C.ar    1  UNL1        0.1371
      9 F         137.6967  137.1246  165.7666 F       1  UNL1       -0.2045
     10 C         139.1586  139.1351  165.0111 C.ar    1  UNL1        0.0171
     11 C         139.9001  140.3974  165.3378 C.ar    1  UNL1        0.0720
     12 CL        140.6205  141.1455  164.2557 Cl      1  UNL1       -0.0810
     13 C         139.9210  140.9116  166.7469 C.ar    1  UNL1        0.0788
     14 N         144.9980  143.1011  164.3636 N.pl3   1  UNL1       -0.3408
     15 C         143.5507  143.3856  164.6363 C.ar    1  UNL1        0.1548
     16 N         142.8302  142.6375  165.7186 N.ar    1  UNL1       -0.2091
     17 C         141.3830  142.9220  165.9913 C.ar    1  UNL1        0.1769
     18 C         140.6562  143.9547  165.1819 C.ar    1  UNL1        0.1767
     19 F         139.2088  144.2393  165.4547 F       1  UNL1       -0.2009
     20 C         141.3766  144.7029  164.0996 C.ar    1  UNL1        0.0652
     21 C         142.8239  144.4183  163.8268 C.ar    1  UNL1        0.1734
     22 F         143.5443  145.1665  162.7446 F       1  UNL1       -0.2012
     23 H         145.4750  142.4233  164.8949 H       1  UNL1        0.1438
     24 H         145.4709  143.5921  163.6533 H       1  UNL1        0.1438
     25 C         139.1376  138.6209  163.6022 C.3     1  UNL1        0.0302
     26 C         140.0059  137.7013  162.7956 C.3     1  UNL1        0.0338
     27 C         139.1080  137.8937  161.6096 C.3     1  UNL1        0.1112
     28 O         139.0869  137.3795  160.2006 O.3     1  UNL1       -0.3844
     29 C         138.2397  138.8133  162.4161 C.3     1  UNL1        0.0338
     30 H         138.3210  137.7481  159.7333 H       1  UNL1        0.2103
     31 C         139.9840  142.4541  170.9737 C.2     1  UNL1        0.0774
     32 O         140.9453  141.8753  171.9691 O.co2   1  UNL1       -0.5444
     33 O         139.0436  143.5471  171.3873 O.co2   1  UNL1       -0.5444
@<TRIPOS>UNITY_ATOM_ATTR
32 1
charge -1
@<TRIPOS>BOND
     1    14    15    1
     2    15    16   ar
     3    16    17   ar
     4    17     1    1
     5     1     2   ar
     6     2     3   ar
     7     3    31    1
     8    31    32   ar
     9    31    33   ar
    10     3     4   ar
    11     4     5    2
    12     4     6   ar
    13     6     7   ar
    14     7     8   ar
    15     8     9    1
    16     8    10   ar
    17    25    10    1
    18    25    26    1
    19    26    27    1
    20    27    28    1
    21    27    29    1
    22    10    11   ar
    23    11    12    1
    24    11    13   ar
    25    17    18   ar
    26    18    19    1
    27    18    20   ar
    28    20    21   ar
    29    21    22    1
    30    21    15   ar
    31    13     1   ar
    32    13     6   ar
    33    29    25    1
    34    14    23    1
    35    14    24    1
    36    28    30    1
@<TRIPOS>MOLECULE
*****
 33 36 0 0 0
SMALL
GASTEIGER

@<TRIPOS>ATOM
      1 N         142.7898  141.8892  166.2346 N.ar    1  UNL1       -0.2874
      2 C         143.4367  142.4878  167.4483 C.ar    1  UNL1        0.0858
      3 C         142.8413  142.2581  168.8057 C.ar    1  UNL1        0.0705
      4 C         141.5991  141.4297  168.9495 C.ar    1  UNL1        0.1996
      5 O         141.0037  141.2000  170.3070 O.2     1  UNL1       -0.2864
      6 C         140.9522  140.8311  167.7357 C.ar    1  UNL1        0.0582
      7 C         139.7099  140.0028  167.8795 C.ar    1  UNL1        0.0340
      8 C         139.0631  139.4041  166.6658 C.ar    1  UNL1        0.1371
      9 F         137.8208  138.5758  166.8095 F       1  UNL1       -0.2045
     10 C         139.6585  139.6338  165.3082 C.ar    1  UNL1        0.0171
     11 C         140.9007  140.4622  165.1645 C.ar    1  UNL1        0.0720
     12 CL        141.4961  140.6919  163.8070 Cl      1  UNL1       -0.0810
     13 C         141.5476  141.0608  166.3783 C.ar    1  UNL1        0.0788
     14 N         143.2378  144.7950  161.9502 N.pl3   1  UNL1       -0.3408
     15 C         143.6092  143.5718  162.7349 C.ar    1  UNL1        0.1548
     16 N         143.0138  143.3421  164.0924 N.ar    1  UNL1       -0.2091
     17 C         143.3852  142.1189  164.8770 C.ar    1  UNL1        0.1769
     18 C         144.3520  141.1253  164.3042 C.ar    1  UNL1        0.1767
     19 F         144.7234  139.9020  165.0889 F       1  UNL1       -0.2009
     20 C         144.9474  141.3549  162.9468 C.ar    1  UNL1        0.0652
     21 C         144.5760  142.5782  162.1620 C.ar    1  UNL1        0.1734
     22 F         145.1714  142.8078  160.8046 F       1  UNL1       -0.2012
     23 H         142.6033  145.4472  162.3262 H       1  UNL1        0.1438
     24 H         143.6286  144.9458  161.0593 H       1  UNL1        0.1438
     25 C         139.0116  139.0352  164.0945 C.3     1  UNL1        0.0302
     26 C         138.1455  139.5585  162.9872 C.3     1  UNL1        0.0338
     27 C         138.0968  138.1886  162.3780 C.3     1  UNL1        0.1112
     28 O         137.4499  137.5899  161.1642 O.3     1  UNL1       -0.3844
     29 C         138.9628  137.6653  163.4853 C.3     1  UNL1        0.0338
     30 H         137.6628  136.6447  161.1174 H       1  UNL1        0.2103
     31 C         143.4882  142.8567  170.0196 C.2     1  UNL1        0.0774
     32 O         144.9821  142.8497  170.1537 O.co2   1  UNL1       -0.5444
     33 O         142.6410  143.4624  171.0991 O.co2   1  UNL1       -0.5444
@<TRIPOS>UNITY_ATOM_ATTR
32 1
charge -1
@<TRIPOS>BOND
     1    14    15    1
     2    15    16   ar
     3    16    17   ar
     4    17     1    1
     5     1     2   ar
     6     2     3   ar
     7     3    31    1
     8    31    32   ar
     9    31    33   ar
    10     3     4   ar
    11     4     5    2
    12     4     6   ar
    13     6     7   ar
    14     7     8   ar
    15     8     9    1
    16     8    10   ar
    17    25    10    1
    18    25    26    1
    19    26    27    1
    20    27    28    1
    21    27    29    1
    22    10    11   ar
    23    11    12    1
    24    11    13   ar
    25    17    18   ar
    26    18    19    1
    27    18    20   ar
    28    20    21   ar
    29    21    22    1
    30    21    15   ar
    31    13     1   ar
    32    13     6   ar
    33    29    25    1
    34    14    23    1
    35    14    24    1
    36    28    30    1
@<TRIPOS>MOLECULE
*****
 33 36 0 0 0
SMALL
GASTEIGER

@<TRIPOS>ATOM
      1 N         140.3432  141.0413  166.9177 N.ar    1  UNL1       -0.2874
      2 C         139.9241  141.0522  168.3579 C.ar    1  UNL1        0.0858
      3 C         140.7115  140.2792  169.3740 C.ar    1  UNL1        0.0705
      4 C         141.9179  139.4952  168.9498 C.ar    1  UNL1        0.1996
      5 O         142.7053  138.7221  169.9660 O.2     1  UNL1       -0.2864
      6 C         142.3370  139.4843  167.5096 C.ar    1  UNL1        0.0582
      7 C         143.5434  138.7003  167.0855 C.ar    1  UNL1        0.0340
      8 C         143.9624  138.6893  165.6453 C.ar    1  UNL1        0.1371
      9 F         145.1689  137.9053  165.2211 F       1  UNL1       -0.2045
     10 C         143.1750  139.4624  164.6291 C.ar    1  UNL1        0.0171
     11 C         141.9686  140.2464  165.0533 C.ar    1  UNL1        0.0720
     12 CL        141.1812  141.0194  164.0372 Cl      1  UNL1       -0.0810
     13 C         141.5496  140.2573  166.4936 C.ar    1  UNL1        0.0788
     14 N         139.5335  145.4125  164.2275 N.pl3   1  UNL1       -0.3408
     15 C         139.1510  144.0000  164.5565 C.ar    1  UNL1        0.1548
     16 N         139.9383  143.2269  165.5726 N.ar    1  UNL1       -0.2091
     17 C         139.5558  141.8143  165.9016 C.ar    1  UNL1        0.1769
     18 C         138.3858  141.1748  165.2144 C.ar    1  UNL1        0.1767
     19 F         138.0033  139.7621  165.5434 F       1  UNL1       -0.2009
     20 C         137.5984  141.9477  164.1983 C.ar    1  UNL1        0.0652
     21 C         137.9810  143.3604  163.8693 C.ar    1  UNL1        0.1734
     22 F         137.1936  144.1334  162.8532 F       1  UNL1       -0.2012
     23 H         140.3014  145.8323  164.6785 H       1  UNL1        0.1438
     24 H         139.0168  145.9199  163.5606 H       1  UNL1        0.1438
     25 C         143.5941  139.4514  163.1889 C.3     1  UNL1        0.0302
     26 C         143.3751  138.5277  162.0275 C.3     1  UNL1        0.0338
     27 C         144.1867  139.4359  161.1521 C.3     1  UNL1        0.1112
     28 O         144.6058  139.4250  159.7118 O.3     1  UNL1       -0.3844
     29 C         144.4057  140.3597  162.3135 C.3     1  UNL1        0.0338
     30 H         145.1405  140.2125  159.5247 H       1  UNL1        0.2103
     31 C         140.2924  140.2901  170.8143 C.2     1  UNL1        0.0774
     32 O         140.8919  141.2860  171.7622 O.co2   1  UNL1       -0.5444
     33 O         139.2739  139.3051  171.3065 O.co2   1  UNL1       -0.5444
@<TRIPOS>UNITY_ATOM_ATTR
32 1
charge -1
@<TRIPOS>BOND
     1    14    15    1
     2    15    16   ar
     3    16    17   ar
     4    17     1    1
     5     1     2   ar
     6     2     3   ar
     7     3    31    1
     8    31    32   ar
     9    31    33   ar
    10     3     4   ar
    11     4     5    2
    12     4     6   ar
    13     6     7   ar
    14     7     8   ar
    15     8     9    1
    16     8    10   ar
    17    25    10    1
    18    25    26    1
    19    26    27    1
    20    27    28    1
    21    27    29    1
    22    10    11   ar
    23    11    12    1
    24    11    13   ar
    25    17    18   ar
    26    18    19    1
    27    18    20   ar
    28    20    21   ar
    29    21    22    1
    30    21    15   ar
    31    13     1   ar
    32    13     6   ar
    33    29    25    1
    34    14    23    1
    35    14    24    1
    36    28    30    1
@<TRIPOS>MOLECULE
*****
 33 36 0 0 0
SMALL
GASTEIGER

@<TRIPOS>ATOM
      1 N         140.2872  140.4354  166.1830 N.ar    1  UNL1       -0.2874
      2 C         139.6460  140.2788  167.5299 C.ar    1  UNL1        0.0858
      3 C         140.2535  140.9405  168.7312 C.ar    1  UNL1        0.0705
      4 C         141.5022  141.7587  168.5855 C.ar    1  UNL1        0.1996
      5 O         142.1097  142.4203  169.7869 O.2     1  UNL1       -0.2864
      6 C         142.1434  141.9153  167.2386 C.ar    1  UNL1        0.0582
      7 C         143.3921  142.7335  167.0930 C.ar    1  UNL1        0.0340
      8 C         144.0334  142.8901  165.7461 C.ar    1  UNL1        0.1371
      9 F         145.2821  143.7084  165.6005 F       1  UNL1       -0.2045
     10 C         143.4259  142.2285  164.5447 C.ar    1  UNL1        0.0171
     11 C         142.1772  141.4102  164.6903 C.ar    1  UNL1        0.0720
     12 CL        141.5697  140.7486  163.4890 Cl      1  UNL1       -0.0810
     13 C         141.5360  141.2537  166.0373 C.ar    1  UNL1        0.0788
     14 N         137.0530  140.5823  162.1186 N.pl3   1  UNL1       -0.3408
     15 C         138.0627  139.8472  162.9494 C.ar    1  UNL1        0.1548
     16 N         138.6701  140.5088  164.1508 N.ar    1  UNL1       -0.2091
     17 C         139.6798  139.7738  164.9816 C.ar    1  UNL1        0.1769
     18 C         140.0820  138.3770  164.6110 C.ar    1  UNL1        0.1767
     19 F         141.0917  137.6419  165.4419 F       1  UNL1       -0.2009
     20 C         139.4746  137.7154  163.4097 C.ar    1  UNL1        0.0652
     21 C         138.4649  138.4504  162.5788 C.ar    1  UNL1        0.1734
     22 F         137.8575  137.7888  161.3775 F       1  UNL1       -0.2012
     23 H         136.7890  141.4990  162.3618 H       1  UNL1        0.1438
     24 H         136.6544  140.1480  161.3301 H       1  UNL1        0.1438
     25 C         144.0672  142.3851  163.1978 C.3     1  UNL1        0.0302
     26 C         144.1253  143.4773  162.1713 C.3     1  UNL1        0.0338
     27 C         144.9740  142.6065  161.2929 C.3     1  UNL1        0.1112
     28 O         145.6153  142.7631  159.9459 O.3     1  UNL1       -0.3844
     29 C         144.9159  141.5143  162.3194 C.3     1  UNL1        0.0338
     30 H         146.0944  141.9506  159.7195 H       1  UNL1        0.2103
     31 C         139.6122  140.7839  170.0782 C.2     1  UNL1        0.0774
     32 O         138.9289  141.9526  170.7239 O.co2   1  UNL1       -0.5444
     33 O         139.6544  139.4585  170.7794 O.co2   1  UNL1       -0.5444
@<TRIPOS>UNITY_ATOM_ATTR
32 1
charge -1
@<TRIPOS>BOND
     1    14    15    1
     2    15    16   ar
     3    16    17   ar
     4    17     1    1
     5     1     2   ar
     6     2     3   ar
     7     3    31    1
     8    31    32   ar
     9    31    33   ar
    10     3     4   ar
    11     4     5    2
    12     4     6   ar
    13     6     7   ar
    14     7     8   ar
    15     8     9    1
    16     8    10   ar
    17    25    10    1
    18    25    26    1
    19    26    27    1
    20    27    28    1
    21    27    29    1
    22    10    11   ar
    23    11    12    1
    24    11    13   ar
    25    17    18   ar
    26    18    19    1
    27    18    20   ar
    28    20    21   ar
    29    21    22    1
    30    21    15   ar
    31    13     1   ar
    32    13     6   ar
    33    29    25    1
    34    14    23    1
    35    14    24    1
    36    28    30    1
@<TRIPOS>MOLECULE
*****
 33 36 0 0 0
SMALL
GASTEIGER

@<TRIPOS>ATOM
      1 N         140.0992  142.7383  166.3060 N.ar    1  UNL1       -0.2874
      2 C         140.2893  143.2686  167.6962 C.ar    1  UNL1        0.0858
      3 C         140.1754  142.3455  168.8730 C.ar    1  UNL1        0.0705
      4 C         139.8714  140.8922  168.6597 C.ar    1  UNL1        0.1996
      5 O         139.7574  139.9692  169.8366 O.2     1  UNL1       -0.2864
      6 C         139.6813  140.3620  167.2695 C.ar    1  UNL1        0.0582
      7 C         139.3772  138.9087  167.0561 C.ar    1  UNL1        0.0340
      8 C         139.1871  138.3784  165.6660 C.ar    1  UNL1        0.1371
      9 F         138.8831  136.9252  165.4526 F       1  UNL1       -0.2045
     10 C         139.3010  139.3015  164.4890 C.ar    1  UNL1        0.0171
     11 C         139.6051  140.7548  164.7024 C.ar    1  UNL1        0.0720
     12 CL        139.7190  141.6778  163.5255 Cl      1  UNL1       -0.0810
     13 C         139.7952  141.2850  166.0926 C.ar    1  UNL1        0.0788
     14 N         143.0174  145.1732  162.7625 N.pl3   1  UNL1       -0.3408
     15 C         141.6722  144.8788  163.3573 C.ar    1  UNL1        0.1548
     16 N         141.5583  143.9558  164.5343 N.ar    1  UNL1       -0.2091
     17 C         140.2131  143.6614  165.1291 C.ar    1  UNL1        0.1769
     18 C         138.9819  144.2899  164.5470 C.ar    1  UNL1        0.1767
     19 F         137.6366  143.9955  165.1419 F       1  UNL1       -0.2009
     20 C         139.0957  145.2129  163.3701 C.ar    1  UNL1        0.0652
     21 C         140.4409  145.5074  162.7753 C.ar    1  UNL1        0.1734
     22 F         140.5548  146.4304  161.5984 F       1  UNL1       -0.2012
     23 H         143.8255  144.7606  163.1446 H       1  UNL1        0.1438
     24 H         143.0921  145.7790  161.9901 H       1  UNL1        0.1438
     25 C         139.1109  138.7712  163.0989 C.3     1  UNL1        0.0302
     26 C         139.9739  138.0354  162.1171 C.3     1  UNL1        0.0338
     27 C         138.8421  138.0213  161.1328 C.3     1  UNL1        0.1112
     28 O         138.6519  137.4910  159.7425 O.3     1  UNL1       -0.3844
     29 C         137.9791  138.7572  162.1146 C.3     1  UNL1        0.0338
     30 H         137.7510  137.6879  159.4418 H       1  UNL1        0.2103
     31 C         140.3655  142.8758  170.2633 C.2     1  UNL1        0.0774
     32 O         139.1761  143.2959  171.0749 O.co2   1  UNL1       -0.5444
     33 O         141.7451  142.9858  170.8419 O.co2   1  UNL1       -0.5444
@<TRIPOS>UNITY_ATOM_ATTR
32 1
charge -1
@<TRIPOS>BOND
     1    14    15    1
     2    15    16   ar
     3    16    17   ar
     4    17     1    1
     5     1     2   ar
     6     2     3   ar
     7     3    31    1
     8    31    32   ar
     9    31    33   ar
    10     3     4   ar
    11     4     5    2
    12     4     6   ar
    13     6     7   ar
    14     7     8   ar
    15     8     9    1
    16     8    10   ar
    17    25    10    1
    18    25    26    1
    19    26    27    1
    20    27    28    1
    21    27    29    1
    22    10    11   ar
    23    11    12    1
    24    11    13   ar
    25    17    18   ar
    26    18    19    1
    27    18    20   ar
    28    20    21   ar
    29    21    22    1
    30    21    15   ar
    31    13     1   ar
    32    13     6   ar
    33    29    25    1
    34    14    23    1
    35    14    24    1
    36    28    30    1
@<TRIPOS>MOLECULE
*****
 33 36 0 0 0
SMALL
GASTEIGER

@<TRIPOS>ATOM
      1 N         140.7621  142.8358  166.3099 N.ar    1  UNL1       -0.2874
      2 C         140.3487  143.4566  167.6112 C.ar    1  UNL1        0.0858
      3 C         140.6408  142.7538  168.9037 C.ar    1  UNL1        0.0705
      4 C         141.3463  141.4301  168.8949 C.ar    1  UNL1        0.1996
      5 O         141.6385  140.7273  170.1875 O.2     1  UNL1       -0.2864
      6 C         141.7598  140.8093  167.5935 C.ar    1  UNL1        0.0582
      7 C         142.4653  139.4856  167.5846 C.ar    1  UNL1        0.0340
      8 C         142.8787  138.8648  166.2833 C.ar    1  UNL1        0.1371
      9 F         143.5843  137.5411  166.2744 F       1  UNL1       -0.2045
     10 C         142.5866  139.5676  164.9907 C.ar    1  UNL1        0.0171
     11 C         141.8810  140.8913  164.9995 C.ar    1  UNL1        0.0720
     12 CL        141.5889  141.5941  163.7070 Cl      1  UNL1       -0.0810
     13 C         141.4676  141.5121  166.3010 C.ar    1  UNL1        0.0788
     14 N         137.4276  144.1094  162.5336 N.pl3   1  UNL1       -0.3408
     15 C         138.8027  144.1754  163.1291 C.ar    1  UNL1        0.1548
     16 N         139.0948  143.4726  164.4217 N.ar    1  UNL1       -0.2091
     17 C         140.4699  143.5387  165.0173 C.ar    1  UNL1        0.1769
     18 C         141.5530  144.3076  164.3202 C.ar    1  UNL1        0.1767
     19 F         142.9281  144.3736  164.9158 F       1  UNL1       -0.2009
     20 C         141.2609  145.0104  163.0277 C.ar    1  UNL1        0.0652
     21 C         139.8858  144.9443  162.4321 C.ar    1  UNL1        0.1734
     22 F         139.5937  145.6472  161.1396 F       1  UNL1       -0.2012
     23 H         136.7168  143.6047  162.9911 H       1  UNL1        0.1438
     24 H         137.2359  144.5706  161.6853 H       1  UNL1        0.1438
     25 C         143.0000  138.9468  163.6893 C.3     1  UNL1        0.0302
     26 C         142.3780  137.9713  162.7345 C.3     1  UNL1        0.0338
     27 C         143.5847  138.0688  161.8489 C.3     1  UNL1        0.1112
     28 O         143.9982  137.4479  160.5474 O.3     1  UNL1       -0.3844
     29 C         144.2067  139.0442  162.8036 C.3     1  UNL1        0.0338
     30 H         144.8756  137.7767  160.2967 H       1  UNL1        0.2103
     31 C         140.2274  143.3746  170.2052 C.2     1  UNL1        0.0774
     32 O         140.1414  144.8669  170.3305 O.co2   1  UNL1       -0.5444
     33 O         139.8999  142.5031  171.3813 O.co2   1  UNL1       -0.5444
@<TRIPOS>UNITY_ATOM_ATTR
32 1
charge -1
@<TRIPOS>BOND
     1    14    15    1
     2    15    16   ar
     3    16    17   ar
     4    17     1    1
     5     1     2   ar
     6     2     3   ar
     7     3    31    1
     8    31    32   ar
     9    31    33   ar
    10     3     4   ar
    11     4     5    2
    12     4     6   ar
    13     6     7   ar
    14     7     8   ar
    15     8     9    1
    16     8    10   ar
    17    25    10    1
    18    25    26    1
    19    26    27    1
    20    27    28    1
    21    27    29    1
    22    10    11   ar
    23    11    12    1
    24    11    13   ar
    25    17    18   ar
    26    18    19    1
    27    18    20   ar
    28    20    21   ar
    29    21    22    1
    30    21    15   ar
    31    13     1   ar
    32    13     6   ar
    33    29    25    1
    34    14    23    1
    35    14    24    1
    36    28    30    1
@<TRIPOS>MOLECULE
*****
 33 36 0 0 0
SMALL
GASTEIGER

@<TRIPOS>ATOM
      1 N         140.4944  141.1322  163.1488 N.ar    1  UNL1       -0.2874
      2 C         140.1952  140.8681  161.7029 C.ar    1  UNL1        0.0858
      3 C         139.2441  139.7726  161.3218 C.ar    1  UNL1        0.0705
      4 C         138.5922  138.9411  162.3866 C.ar    1  UNL1        0.1996
      5 O         137.6411  137.8456  162.0054 O.2     1  UNL1       -0.2864
      6 C         138.8914  139.2052  163.8325 C.ar    1  UNL1        0.0582
      7 C         138.2396  138.3738  164.8973 C.ar    1  UNL1        0.0340
      8 C         138.5387  138.6379  166.3432 C.ar    1  UNL1        0.1371
      9 F         137.8869  137.8065  167.4080 F       1  UNL1       -0.2045
     10 C         139.4899  139.7335  166.7244 C.ar    1  UNL1        0.0171
     11 C         140.1417  140.5649  165.6596 C.ar    1  UNL1        0.0720
     12 CL        141.0928  141.6604  166.0407 Cl      1  UNL1       -0.0810
     13 C         139.8425  140.3008  164.2136 C.ar    1  UNL1        0.0788
     14 N         145.2942  142.7001  164.3752 N.pl3   1  UNL1       -0.3408
     15 C         143.8454  143.0117  164.1432 C.ar    1  UNL1        0.1548
     16 N         142.8943  141.9161  163.7620 N.ar    1  UNL1       -0.2091
     17 C         141.4455  142.2277  163.5300 C.ar    1  UNL1        0.1769
     18 C         140.9477  143.6349  163.6791 C.ar    1  UNL1        0.1767
     19 F         139.4988  143.9464  163.4471 F       1  UNL1       -0.2009
     20 C         141.8987  144.7304  164.0603 C.ar    1  UNL1        0.0652
     21 C         143.3476  144.4188  164.2923 C.ar    1  UNL1        0.1734
     22 F         144.2986  145.5144  164.6734 F       1  UNL1       -0.2012
     23 H         145.6208  141.7766  164.2773 H       1  UNL1        0.1438
     24 H         145.9184  143.4191  164.6253 H       1  UNL1        0.1438
     25 C         139.7890  139.9976  168.1703 C.3     1  UNL1        0.0302
     26 C         141.0294  139.9980  169.0139 C.3     1  UNL1        0.0338
     27 C         140.2122  140.3711  170.2152 C.3     1  UNL1        0.1112
     28 O         140.5114  140.6352  171.6612 O.3     1  UNL1       -0.3844
     29 C         138.9719  140.3707  169.3716 C.3     1  UNL1        0.0338
     30 H         139.6888  140.8528  172.1270 H       1  UNL1        0.2103
     31 C         138.9449  139.5084  159.8758 C.2     1  UNL1        0.0774
     32 O         139.9295  138.7548  159.0317 O.co2   1  UNL1       -0.5444
     33 O         137.6610  139.9979  159.2741 O.co2   1  UNL1       -0.5444
@<TRIPOS>UNITY_ATOM_ATTR
32 1
charge -1
@<TRIPOS>BOND
     1    14    15    1
     2    15    16   ar
     3    16    17   ar
     4    17     1    1
     5     1     2   ar
     6     2     3   ar
     7     3    31    1
     8    31    32   ar
     9    31    33   ar
    10     3     4   ar
    11     4     5    2
    12     4     6   ar
    13     6     7   ar
    14     7     8   ar
    15     8     9    1
    16     8    10   ar
    17    25    10    1
    18    25    26    1
    19    26    27    1
    20    27    28    1
    21    27    29    1
    22    10    11   ar
    23    11    12    1
    24    11    13   ar
    25    17    18   ar
    26    18    19    1
    27    18    20   ar
    28    20    21   ar
    29    21    22    1
    30    21    15   ar
    31    13     1   ar
    32    13     6   ar
    33    29    25    1
    34    14    23    1
    35    14    24    1
    36    28    30    1
@<TRIPOS>MOLECULE
*****
 33 36 0 0 0
SMALL
GASTEIGER

@<TRIPOS>ATOM
      1 N         140.5814  141.0151  163.1338 N.ar    1  UNL1       -0.2874
      2 C         140.2948  140.7299  161.6893 C.ar    1  UNL1        0.0858
      3 C         139.3297  139.6438  161.3165 C.ar    1  UNL1        0.0705
      4 C         138.6513  138.8430  162.3881 C.ar    1  UNL1        0.1996
      5 O         137.6862  137.7568  162.0152 O.2     1  UNL1       -0.2864
      6 C         138.9379  139.1282  163.8325 C.ar    1  UNL1        0.0582
      7 C         138.2594  138.3274  164.9041 C.ar    1  UNL1        0.0340
      8 C         138.5460  138.6126  166.3486 C.ar    1  UNL1        0.1371
      9 F         137.8676  137.8117  167.4202 F       1  UNL1       -0.2045
     10 C         139.5111  139.6987  166.7215 C.ar    1  UNL1        0.0171
     11 C         140.1896  140.4996  165.6499 C.ar    1  UNL1        0.0720
     12 CL        141.1546  141.5857  166.0227 Cl      1  UNL1       -0.0810
     13 C         139.9029  140.2143  164.2054 C.ar    1  UNL1        0.0788
     14 N         141.6467  146.0585  163.7893 N.pl3   1  UNL1       -0.3408
     15 C         142.0791  144.6230  163.8344 C.ar    1  UNL1        0.1548
     16 N         141.1140  143.5368  163.4615 N.ar    1  UNL1       -0.2091
     17 C         141.5465  142.1013  163.5067 C.ar    1  UNL1        0.1769
     18 C         142.9440  141.7518  163.9247 C.ar    1  UNL1        0.1767
     19 F         143.3764  140.3161  163.9698 F       1  UNL1       -0.2009
     20 C         143.9091  142.8378  164.2976 C.ar    1  UNL1        0.0652
     21 C         143.4767  144.2735  164.2525 C.ar    1  UNL1        0.1734
     22 F         144.4417  145.3595  164.6253 F       1  UNL1       -0.2012
     23 H         140.7294  146.2879  163.5149 H       1  UNL1        0.1438
     24 H         142.2801  146.7714  164.0340 H       1  UNL1        0.1438
     25 C         139.7977  139.9840  168.1659 C.3     1  UNL1        0.0302
     26 C         138.9705  140.3773  169.3538 C.3     1  UNL1        0.0338
     27 C         140.2030  140.3874  170.2087 C.3     1  UNL1        0.1112
     28 O         140.4897  140.6726  171.6532 O.3     1  UNL1       -0.3844
     29 C         141.0302  139.9941  169.0208 C.3     1  UNL1        0.0338
     30 H         141.4394  140.5689  171.8210 H       1  UNL1        0.2103
     31 C         139.0431  139.3585  159.8720 C.2     1  UNL1        0.0774
     32 O         137.8196  139.9338  159.2223 O.co2   1  UNL1       -0.5444
     33 O         139.9800  138.4979  159.0772 O.co2   1  UNL1       -0.5444
@<TRIPOS>UNITY_ATOM_ATTR
32 1
charge -1
@<TRIPOS>BOND
     1    14    15    1
     2    15    16   ar
     3    16    17   ar
     4    17     1    1
     5     1     2   ar
     6     2     3   ar
     7     3    31    1
     8    31    32   ar
     9    31    33   ar
    10     3     4   ar
    11     4     5    2
    12     4     6   ar
    13     6     7   ar
    14     7     8   ar
    15     8     9    1
    16     8    10   ar
    17    25    10    1
    18    25    26    1
    19    26    27    1
    20    27    28    1
    21    27    29    1
    22    10    11   ar
    23    11    12    1
    24    11    13   ar
    25    17    18   ar
    26    18    19    1
    27    18    20   ar
    28    20    21   ar
    29    21    22    1
    30    21    15   ar
    31    13     1   ar
    32    13     6   ar
    33    29    25    1
    34    14    23    1
    35    14    24    1
    36    28    30    1
