@<TRIPOS>MOLECULE
*****
 30 32 0 0 0
SMALL
GASTEIGER

@<TRIPOS>ATOM
      1 C         141.9811  141.3004  166.6124 C.2     1  UNL1        0.0618
      2 C         142.6864  142.2303  167.5546 C.2     1  UNL1        0.1501
      3 F         143.9326  142.9403  167.1151 F       1  UNL1       -0.2032
      4 C         142.1456  142.4503  168.9362 C.2     1  UNL1        0.0363
      5 C         140.8994  141.7404  169.3758 C.2     1  UNL1        0.0696
      6 C         140.1941  140.8105  168.4335 C.2     1  UNL1        0.0718
      7 N         138.9554  139.9781  168.5845 N.2     1  UNL1       -0.2538
      8 C         138.7308  139.2436  167.2960 C.2     1  UNL1        0.0518
      9 C         137.6041  138.2969  167.0057 C.3     1  UNL1        0.0514
     10 C         139.8305  139.6221  166.3488 C.2     1  UNL1       -0.0198
     11 C         139.9967  139.1203  164.9450 C.3     1  UNL1        0.0283
     12 C         140.7349  140.5905  167.0518 C.3     1  UNL1        0.0976
     13 C         142.4729  141.6018  162.6859 C.3     1  UNL1        0.0922
     14 C         143.6036  140.6406  162.4672 C.3     1  UNL1        0.0231
     15 C         144.1933  139.8994  163.6302 C.3     1  UNL1        0.0232
     16 C         143.6525  140.1193  165.0120 C.3     1  UNL1        0.0907
     17 N         142.5219  141.0805  165.2307 N.pl3   1  UNL1       -0.3069
     18 C         141.9321  141.8218  164.0675 C.3     1  UNL1        0.1101
     19 C         142.3761  143.7181  161.1819 C.2     1  UNL1        0.2891
     20 O         143.4588  144.3520  162.0041 O.2     1  UNL1       -0.2607
     21 N         141.8831  142.3430  161.5228 N.am    1  UNL1       -0.2942
     22 H         141.1725  141.9270  160.9832 H       1  UNL1        0.1503
     23 C         140.6066  145.9419  157.6927 C.3     1  UNL1        0.0905
     24 C         141.1964  145.2006  158.8558 C.1     1  UNL1       -0.0810
     25 C         141.7863  144.4593  160.0189 C.1     1  UNL1       -0.0073
     26 C         140.3586  141.9604  170.7575 C.2     1  UNL1        0.2440
     27 N         139.5013  143.1571  171.0457 N.am    1  UNL1       -0.3253
     28 O         140.6752  140.9837  171.8511 O.2     1  UNL1       -0.2703
     29 H         139.2936  143.7981  170.3279 H       1  UNL1        0.1453
     30 H         139.1464  143.3015  171.9525 H       1  UNL1        0.1453
@<TRIPOS>BOND
     1    23    24    1
     2    24    25    3
     3    25    19    1
     4    19    20    2
     5    19    21   am
     6    13    21    1
     7    13    14    1
     8    14    15    1
     9    15    16    1
    10    16    17    1
    11    17     1    1
    12     1     2    2
    13     2     3    1
    14     2     4    1
    15     4     5    2
    16     5    26    1
    17    26    27   am
    18    26    28    2
    19     5     6    1
    20     6     7    2
    21     7     8    1
    22     8     9    1
    23     8    10    2
    24    10    11    1
    25    10    12    1
    26    17    18    1
    27    18    13    1
    28    12     1    1
    29    12     6    1
    30    21    22    1
    31    27    29    1
    32    27    30    1
@<TRIPOS>MOLECULE
*****
 30 32 0 0 0
SMALL
GASTEIGER

@<TRIPOS>ATOM
      1 C         141.9108  141.8821  166.3681 C.2     1  UNL1        0.0618
      2 C         143.0781  142.3399  167.1914 C.2     1  UNL1        0.1501
      3 F         144.1218  143.2294  166.5833 F       1  UNL1       -0.2032
      4 C         143.2017  141.9084  168.6226 C.2     1  UNL1        0.0363
      5 C         142.1581  141.0189  169.2307 C.2     1  UNL1        0.0696
      6 C         140.9908  140.5611  168.4074 C.2     1  UNL1        0.0718
      7 N         139.8149  139.6879  168.7315 N.2     1  UNL1       -0.2538
      8 C         138.9646  139.5799  167.5006 C.2     1  UNL1        0.0518
      9 C         137.6881  138.8020  167.3763 C.3     1  UNL1        0.0514
     10 C         139.6149  140.3862  166.4157 C.2     1  UNL1       -0.0198
     11 C         139.1028  140.5563  165.0161 C.3     1  UNL1        0.0283
     12 C         140.8671  140.9927  166.9761 C.3     1  UNL1        0.0976
     13 C         142.0782  141.8158  162.4036 C.3     1  UNL1        0.0922
     14 C         141.5400  143.1767  162.0743 C.3     1  UNL1        0.0231
     15 C         141.1254  144.1060  163.1764 C.3     1  UNL1        0.0232
     16 C         141.2490  143.6745  164.6077 C.3     1  UNL1        0.0907
     17 N         141.7872  142.3136  164.9369 N.pl3   1  UNL1       -0.3069
     18 C         142.2018  141.3843  163.8348 C.3     1  UNL1        0.1101
     19 C         141.5211  139.8768  160.7665 C.2     1  UNL1        0.2891
     20 O         140.1347  139.7964  161.3336 O.2     1  UNL1       -0.2607
     21 N         142.4928  140.8865  161.3016 N.am    1  UNL1       -0.2942
     22 H         143.4027  140.9393  160.9294 H       1  UNL1        0.1503
     23 C         142.7650  137.0890  157.4603 C.3     1  UNL1        0.0905
     24 C         142.3503  138.0183  158.5623 C.1     1  UNL1       -0.0810
     25 C         141.9357  138.9476  159.6645 C.1     1  UNL1       -0.0073
     26 C         142.2818  140.5874  170.6619 C.2     1  UNL1        0.2440
     27 N         143.4019  139.6806  171.0778 N.am    1  UNL1       -0.3253
     28 O         141.2852  141.0627  171.6773 O.2     1  UNL1       -0.2703
     29 H         144.0560  139.3687  170.4113 H       1  UNL1        0.1453
     30 H         143.4831  139.3974  172.0171 H       1  UNL1        0.1453
@<TRIPOS>BOND
     1    23    24    1
     2    24    25    3
     3    25    19    1
     4    19    20    2
     5    19    21   am
     6    13    21    1
     7    13    14    1
     8    14    15    1
     9    15    16    1
    10    16    17    1
    11    17     1    1
    12     1     2    2
    13     2     3    1
    14     2     4    1
    15     4     5    2
    16     5    26    1
    17    26    27   am
    18    26    28    2
    19     5     6    1
    20     6     7    2
    21     7     8    1
    22     8     9    1
    23     8    10    2
    24    10    11    1
    25    10    12    1
    26    17    18    1
    27    18    13    1
    28    12     1    1
    29    12     6    1
    30    21    22    1
    31    27    29    1
    32    27    30    1
@<TRIPOS>MOLECULE
*****
 30 32 0 0 0
SMALL
GASTEIGER

@<TRIPOS>ATOM
      1 C         140.4751  141.8615  166.3557 C.2     1  UNL1        0.0618
      2 C         140.1507  143.0091  167.2655 C.2     1  UNL1        0.1501
      3 F         139.1483  144.0416  166.8422 F       1  UNL1       -0.2032
      4 C         140.8286  143.1242  168.5985 C.2     1  UNL1        0.0363
      5 C         141.8311  142.0917  169.0219 C.2     1  UNL1        0.0696
      6 C         142.1555  140.9441  168.1121 C.2     1  UNL1        0.0718
      7 N         143.0935  139.7826  168.2570 N.2     1  UNL1       -0.2538
      8 C         142.9953  138.9497  167.0134 C.2     1  UNL1        0.0518
      9 C         143.7613  137.6910  166.7325 C.3     1  UNL1        0.0514
     10 C         141.9966  139.5963  166.0999 C.2     1  UNL1       -0.0198
     11 C         141.5886  139.0979  164.7453 C.3     1  UNL1        0.0283
     12 C         141.4775  140.8290  166.7790 C.3     1  UNL1        0.0976
     13 C         139.7603  142.2219  162.4687 C.3     1  UNL1        0.0922
     14 C         138.4413  141.5162  162.3564 C.3     1  UNL1        0.0231
     15 C         137.8004  140.9257  163.5772 C.3     1  UNL1        0.0232
     16 C         138.4783  141.0407  164.9104 C.3     1  UNL1        0.0907
     17 N         139.7972  141.7464  165.0226 N.pl3   1  UNL1       -0.3069
     18 C         140.4382  142.3370  163.8017 C.3     1  UNL1        0.1101
     19 C         140.0958  144.2261  160.8498 C.2     1  UNL1        0.2891
     20 O         139.1494  145.0491  161.6726 O.2     1  UNL1       -0.2607
     21 N         140.4012  142.8125  161.2479 N.am    1  UNL1       -0.2942
     22 H         141.0223  142.2723  160.7078 H       1  UNL1        0.1503
     23 C         142.0186  145.9978  157.1873 C.3     1  UNL1        0.0905
     24 C         141.3777  145.4073  158.4081 C.1     1  UNL1       -0.0810
     25 C         140.7367  144.8166  159.6290 C.1     1  UNL1       -0.0073
     26 C         142.5090  142.2069  170.3550 C.2     1  UNL1        0.2440
     27 N         144.0063  142.1779  170.4400 N.am    1  UNL1       -0.3253
     28 O         141.6895  142.3510  171.6031 O.2     1  UNL1       -0.2703
     29 H         144.5441  142.0833  169.6209 H       1  UNL1        0.1453
     30 H         144.4512  142.2535  171.3150 H       1  UNL1        0.1453
@<TRIPOS>BOND
     1    23    24    1
     2    24    25    3
     3    25    19    1
     4    19    20    2
     5    19    21   am
     6    13    21    1
     7    13    14    1
     8    14    15    1
     9    15    16    1
    10    16    17    1
    11    17     1    1
    12     1     2    2
    13     2     3    1
    14     2     4    1
    15     4     5    2
    16     5    26    1
    17    26    27   am
    18    26    28    2
    19     5     6    1
    20     6     7    2
    21     7     8    1
    22     8     9    1
    23     8    10    2
    24    10    11    1
    25    10    12    1
    26    17    18    1
    27    18    13    1
    28    12     1    1
    29    12     6    1
    30    21    22    1
    31    27    29    1
    32    27    30    1
@<TRIPOS>MOLECULE
*****
 30 32 0 0 0
SMALL
GASTEIGER

@<TRIPOS>ATOM
      1 C         141.4338  140.5195  165.7178 C.2     1  UNL1        0.0618
      2 C         142.2895  141.5822  166.3411 C.2     1  UNL1        0.1501
      3 F         143.4664  142.1327  165.5914 F       1  UNL1       -0.2032
      4 C         141.9684  142.0942  167.7138 C.2     1  UNL1        0.0363
      5 C         140.7915  141.5437  168.4635 C.2     1  UNL1        0.0696
      6 C         139.9357  140.4810  167.8402 C.2     1  UNL1        0.0718
      7 N         138.7204  139.7535  168.3338 N.2     1  UNL1       -0.2538
      8 C         138.2904  138.7918  167.2660 C.2     1  UNL1        0.0518
      9 C         137.1169  137.8604  167.3389 C.3     1  UNL1        0.0514
     10 C         139.2400  138.9249  166.1125 C.2     1  UNL1       -0.0198
     11 C         139.1828  138.1501  164.8294 C.3     1  UNL1        0.0283
     12 C         140.2569  139.9690  166.4673 C.3     1  UNL1        0.0976
     13 C         141.3124  140.0028  161.7848 C.3     1  UNL1        0.0922
     14 C         142.3971  138.9834  161.5992 C.3     1  UNL1        0.0231
     15 C         143.1607  138.4761  162.7865 C.3     1  UNL1        0.0232
     16 C         142.8396  138.9881  164.1594 C.3     1  UNL1        0.0907
     17 N         141.7549  140.0075  164.3450 N.pl3   1  UNL1       -0.3069
     18 C         140.9913  140.5148  163.1576 C.3     1  UNL1        0.1101
     19 C         139.2410  139.8792  160.2216 C.2     1  UNL1        0.2891
     20 O         138.6966  138.7411  161.0329 O.2     1  UNL1       -0.2607
     21 N         140.5489  140.5100  160.5975 N.am    1  UNL1       -0.2942
     22 H         140.9063  141.2570  160.0650 H       1  UNL1        0.1503
     23 C         136.9504  141.4011  156.6597 C.3     1  UNL1        0.0905
     24 C         137.7139  140.8938  157.8470 C.1     1  UNL1       -0.0810
     25 C         138.4775  140.3865  159.0343 C.1     1  UNL1       -0.0073
     26 C         140.4704  142.0558  169.8363 C.2     1  UNL1        0.2440
     27 N         139.2327  141.5860  170.5416 N.am    1  UNL1       -0.3253
     28 O         141.3870  143.0378  170.5038 O.2     1  UNL1       -0.2703
     29 H         138.6311  140.9415  170.1035 H       1  UNL1        0.1453
     30 H         139.0220  141.9221  171.4426 H       1  UNL1        0.1453
@<TRIPOS>BOND
     1    23    24    1
     2    24    25    3
     3    25    19    1
     4    19    20    2
     5    19    21   am
     6    13    21    1
     7    13    14    1
     8    14    15    1
     9    15    16    1
    10    16    17    1
    11    17     1    1
    12     1     2    2
    13     2     3    1
    14     2     4    1
    15     4     5    2
    16     5    26    1
    17    26    27   am
    18    26    28    2
    19     5     6    1
    20     6     7    2
    21     7     8    1
    22     8     9    1
    23     8    10    2
    24    10    11    1
    25    10    12    1
    26    17    18    1
    27    18    13    1
    28    12     1    1
    29    12     6    1
    30    21    22    1
    31    27    29    1
    32    27    30    1
@<TRIPOS>MOLECULE
*****
 30 32 0 0 0
SMALL
GASTEIGER

@<TRIPOS>ATOM
      1 C         141.7181  140.3963  166.2299 C.2     1  UNL1        0.0618
      2 C         142.5075  140.0818  167.4660 C.2     1  UNL1        0.1501
      3 F         143.3499  138.8419  167.5225 F       1  UNL1       -0.2032
      4 C         142.4545  141.0069  168.6454 C.2     1  UNL1        0.0363
      5 C         141.6120  142.2468  168.5889 C.2     1  UNL1        0.0696
      6 C         140.8226  142.5613  167.3528 C.2     1  UNL1        0.0718
      7 N         139.9101  143.7007  167.0075 N.2     1  UNL1       -0.2538
      8 C         139.3993  143.4797  165.6147 C.2     1  UNL1        0.0518
      9 C         138.4571  144.3771  164.8683 C.3     1  UNL1        0.0514
     10 C         139.9959  142.2037  165.0991 C.2     1  UNL1       -0.0198
     11 C         139.7552  141.6011  163.7467 C.3     1  UNL1        0.0283
     12 C         140.8756  141.6361  166.1733 C.3     1  UNL1        0.0976
     13 C         142.6443  138.9096  162.6688 C.3     1  UNL1        0.0922
     14 C         141.8772  137.6207  162.6914 C.3     1  UNL1        0.0231
     15 C         141.0572  137.2571  163.8936 C.3     1  UNL1        0.0232
     16 C         141.0041  138.1822  165.0731 C.3     1  UNL1        0.0907
     17 N         141.7711  139.4711  165.0504 N.pl3   1  UNL1       -0.3069
     18 C         142.5912  139.8348  163.8482 C.3     1  UNL1        0.1101
     19 C         142.8343  140.0155  160.3255 C.2     1  UNL1        0.2891
     20 O         141.3842  140.3942  160.3866 O.2     1  UNL1       -0.2607
     21 N         143.4643  139.2732  161.4666 N.am    1  UNL1       -0.2942
     22 H         144.4161  139.0247  161.4265 H       1  UNL1        0.1503
     23 C         145.2944  141.1065  156.7189 C.3     1  UNL1        0.0905
     24 C         144.4744  140.7429  157.9211 C.1     1  UNL1       -0.0810
     25 C         143.6543  140.3792  159.1233 C.1     1  UNL1       -0.0073
     26 C         141.5590  143.1720  169.7684 C.2     1  UNL1        0.2440
     27 N         140.3479  144.0268  169.9973 N.am    1  UNL1       -0.3253
     28 O         142.7172  143.2422  170.7190 O.2     1  UNL1       -0.2703
     29 H         139.5878  143.9807  169.3733 H       1  UNL1        0.1453
     30 H         140.3132  144.6340  170.7714 H       1  UNL1        0.1453
@<TRIPOS>BOND
     1    23    24    1
     2    24    25    3
     3    25    19    1
     4    19    20    2
     5    19    21   am
     6    13    21    1
     7    13    14    1
     8    14    15    1
     9    15    16    1
    10    16    17    1
    11    17     1    1
    12     1     2    2
    13     2     3    1
    14     2     4    1
    15     4     5    2
    16     5    26    1
    17    26    27   am
    18    26    28    2
    19     5     6    1
    20     6     7    2
    21     7     8    1
    22     8     9    1
    23     8    10    2
    24    10    11    1
    25    10    12    1
    26    17    18    1
    27    18    13    1
    28    12     1    1
    29    12     6    1
    30    21    22    1
    31    27    29    1
    32    27    30    1
@<TRIPOS>MOLECULE
*****
 30 32 0 0 0
SMALL
GASTEIGER

@<TRIPOS>ATOM
      1 C         139.7339  141.0551  165.2722 C.2     1  UNL1        0.0618
      2 C         138.9660  140.1544  166.1937 C.2     1  UNL1        0.1501
      3 F         137.6119  139.6491  165.7921 F       1  UNL1       -0.2032
      4 C         139.5520  139.7590  167.5165 C.2     1  UNL1        0.0363
      5 C         140.9061  140.2644  167.9181 C.2     1  UNL1        0.0696
      6 C         141.6740  141.1651  166.9967 C.2     1  UNL1        0.0718
      7 N         143.0203  141.8149  167.1201 N.2     1  UNL1       -0.2538
      8 C         143.2662  142.6119  165.8733 C.2     1  UNL1        0.0518
      9 C         144.4913  143.4237  165.5731 C.3     1  UNL1        0.0514
     10 C         142.0719  142.4546  164.9795 C.2     1  UNL1       -0.0198
     11 C         141.8931  143.0815  163.6285 C.3     1  UNL1        0.0283
     12 C         141.0879  141.5604  165.6737 C.3     1  UNL1        0.0976
     13 C         138.6075  140.8909  161.4703 C.3     1  UNL1        0.0922
     14 C         137.9755  142.2410  161.3033 C.3     1  UNL1        0.0231
     15 C         137.9297  143.1958  162.4593 C.3     1  UNL1        0.0232
     16 C         138.5158  142.8005  163.7823 C.3     1  UNL1        0.0907
     17 N         139.1477  141.4504  163.9493 N.pl3   1  UNL1       -0.3069
     18 C         139.1936  140.4956  162.7932 C.3     1  UNL1        0.1101
     19 C         139.8867  139.8450  159.4654 C.2     1  UNL1        0.2891
     20 O         141.0741  140.7086  159.7724 O.2     1  UNL1       -0.2607
     21 N         138.6534  139.9362  160.3143 N.am    1  UNL1       -0.2942
     22 H         137.8741  139.3694  160.1128 H       1  UNL1        0.1503
     23 C         140.0244  136.9808  155.9973 C.3     1  UNL1        0.0905
     24 C         139.9785  137.9355  157.1533 C.1     1  UNL1       -0.0810
     25 C         139.9325  138.8903  158.3094 C.1     1  UNL1       -0.0073
     26 C         141.4922  139.8690  169.2411 C.2     1  UNL1        0.2440
     27 N         142.9780  139.9032  169.4435 N.am    1  UNL1       -0.3253
     28 O         140.5923  139.4394  170.3616 O.2     1  UNL1       -0.2703
     29 H         143.5686  140.1852  168.7080 H       1  UNL1        0.1453
     30 H         143.3627  139.6437  170.3118 H       1  UNL1        0.1453
@<TRIPOS>BOND
     1    23    24    1
     2    24    25    3
     3    25    19    1
     4    19    20    2
     5    19    21   am
     6    13    21    1
     7    13    14    1
     8    14    15    1
     9    15    16    1
    10    16    17    1
    11    17     1    1
    12     1     2    2
    13     2     3    1
    14     2     4    1
    15     4     5    2
    16     5    26    1
    17    26    27   am
    18    26    28    2
    19     5     6    1
    20     6     7    2
    21     7     8    1
    22     8     9    1
    23     8    10    2
    24    10    11    1
    25    10    12    1
    26    17    18    1
    27    18    13    1
    28    12     1    1
    29    12     6    1
    30    21    22    1
    31    27    29    1
    32    27    30    1
@<TRIPOS>MOLECULE
*****
 30 32 0 0 0
SMALL
GASTEIGER

@<TRIPOS>ATOM
      1 C         140.5955  140.1285  166.4159 C.2     1  UNL1        0.0618
      2 C         139.6203  139.9449  167.5408 C.2     1  UNL1        0.1501
      3 F         138.5319  138.9186  167.4298 F       1  UNL1       -0.2032
      4 C         139.7336  140.7874  168.7766 C.2     1  UNL1        0.0363
      5 C         140.8220  141.8136  168.8875 C.2     1  UNL1        0.0696
      6 C         141.7971  141.9973  167.7627 C.2     1  UNL1        0.0718
      7 N         142.9652  142.9219  167.5878 N.2     1  UNL1       -0.2538
      8 C         143.5738  142.6509  166.2439 C.2     1  UNL1        0.0518
      9 C         144.7652  143.3493  165.6585 C.3     1  UNL1        0.0514
     10 C         142.7819  141.5586  165.5882 C.2     1  UNL1       -0.0198
     11 C         143.0424  140.9732  164.2320 C.3     1  UNL1        0.0283
     12 C         141.6838  141.1547  166.5268 C.3     1  UNL1        0.0976
     13 C         139.5483  138.9215  162.7832 C.3     1  UNL1        0.0922
     14 C         140.2556  137.6008  162.7084 C.3     1  UNL1        0.0231
     15 C         141.0761  137.1227  163.8695 C.3     1  UNL1        0.0232
     16 C         141.1895  137.9652  165.1054 C.3     1  UNL1        0.0907
     17 N         140.4822  139.2859  165.1801 N.pl3   1  UNL1       -0.3069
     18 C         139.6616  139.7640  164.0189 C.3     1  UNL1        0.1101
     19 C         139.4049  139.9080  160.3840 C.2     1  UNL1        0.2891
     20 O         140.9026  139.9383  160.3069 O.2     1  UNL1       -0.2607
     21 N         138.7278  139.3996  161.6221 N.am    1  UNL1       -0.2942
     22 H         137.7448  139.3797  161.6727 H       1  UNL1        0.1503
     23 C         136.9432  141.3422  156.9007 C.3     1  UNL1        0.0905
     24 C         137.7637  140.8641  158.0618 C.1     1  UNL1       -0.0810
     25 C         138.5844  140.3860  159.2229 C.1     1  UNL1       -0.0073
     26 C         140.9352  142.6562  170.1234 C.2     1  UNL1        0.2440
     27 N         139.8116  143.5702  170.5135 N.am    1  UNL1       -0.3253
     28 O         142.1720  142.5847  170.9691 O.2     1  UNL1       -0.2703
     29 H         138.9999  143.6171  169.9584 H       1  UNL1        0.1453
     30 H         139.8859  144.1232  171.3246 H       1  UNL1        0.1453
@<TRIPOS>BOND
     1    23    24    1
     2    24    25    3
     3    25    19    1
     4    19    20    2
     5    19    21   am
     6    13    21    1
     7    13    14    1
     8    14    15    1
     9    15    16    1
    10    16    17    1
    11    17     1    1
    12     1     2    2
    13     2     3    1
    14     2     4    1
    15     4     5    2
    16     5    26    1
    17    26    27   am
    18    26    28    2
    19     5     6    1
    20     6     7    2
    21     7     8    1
    22     8     9    1
    23     8    10    2
    24    10    11    1
    25    10    12    1
    26    17    18    1
    27    18    13    1
    28    12     1    1
    29    12     6    1
    30    21    22    1
    31    27    29    1
    32    27    30    1
@<TRIPOS>MOLECULE
*****
 30 32 0 0 0
SMALL
GASTEIGER

@<TRIPOS>ATOM
      1 C         140.9505  139.6312  164.8290 C.2     1  UNL1        0.0618
      2 C         141.9194  138.7638  165.5765 C.2     1  UNL1        0.1501
      3 F         142.2507  137.3940  165.0624 F       1  UNL1       -0.2032
      4 C         142.5569  139.2659  166.8379 C.2     1  UNL1        0.0363
      5 C         142.2255  140.6356  167.3520 C.2     1  UNL1        0.0696
      6 C         141.2566  141.5031  166.6045 C.2     1  UNL1        0.0718
      7 N         140.7397  142.8866  166.8662 N.2     1  UNL1       -0.2538
      8 C         139.7827  143.2395  165.7663 C.2     1  UNL1        0.0518
      9 C         139.0320  144.5312  165.6315 C.3     1  UNL1        0.0514
     10 C         139.7082  142.0741  164.8250 C.2     1  UNL1       -0.0198
     11 C         138.8699  141.9956  163.5836 C.3     1  UNL1        0.0283
     12 C         140.6191  141.0009  165.3430 C.3     1  UNL1        0.0976
     13 C         140.3144  138.9099  160.9787 C.3     1  UNL1        0.0922
     14 C         139.0380  138.1246  161.0444 C.3     1  UNL1        0.0231
     15 C         138.3992  137.8416  162.3717 C.3     1  UNL1        0.0232
     16 C         139.0366  138.3438  163.6333 C.3     1  UNL1        0.0907
     17 N         140.3130  139.1290  163.5675 N.pl3   1  UNL1       -0.3069
     18 C         140.9519  139.4120  162.2401 C.3     1  UNL1        0.1101
     19 C         142.1880  138.4476  159.2391 C.2     1  UNL1        0.2891
     20 O         142.7839  137.4192  160.1542 O.2     1  UNL1       -0.2607
     21 N         140.9533  139.1929  159.6514 N.am    1  UNL1       -0.2942
     22 H         140.5622  139.8678  159.0507 H       1  UNL1        0.1503
     23 C         144.1045  139.2966  155.2571 C.3     1  UNL1        0.0905
     24 C         143.4656  139.0136  156.5844 C.1     1  UNL1       -0.0810
     25 C         142.8269  138.7306  157.9118 C.1     1  UNL1       -0.0073
     26 C         142.8631  141.1377  168.6135 C.2     1  UNL1        0.2440
     27 N         143.2403  142.5841  168.7390 N.am    1  UNL1       -0.3253
     28 O         143.1235  140.1934  169.7495 O.2     1  UNL1       -0.2703
     29 H         143.0694  143.2038  167.9934 H       1  UNL1        0.1453
     30 H         143.6587  142.9136  169.5670 H       1  UNL1        0.1453
@<TRIPOS>BOND
     1    23    24    1
     2    24    25    3
     3    25    19    1
     4    19    20    2
     5    19    21   am
     6    13    21    1
     7    13    14    1
     8    14    15    1
     9    15    16    1
    10    16    17    1
    11    17     1    1
    12     1     2    2
    13     2     3    1
    14     2     4    1
    15     4     5    2
    16     5    26    1
    17    26    27   am
    18    26    28    2
    19     5     6    1
    20     6     7    2
    21     7     8    1
    22     8     9    1
    23     8    10    2
    24    10    11    1
    25    10    12    1
    26    17    18    1
    27    18    13    1
    28    12     1    1
    29    12     6    1
    30    21    22    1
    31    27    29    1
    32    27    30    1
@<TRIPOS>MOLECULE
*****
 30 32 0 0 0
SMALL
GASTEIGER

@<TRIPOS>ATOM
      1 C         141.6015  141.5331  165.1784 C.2     1  UNL1        0.0618
      2 C         141.6402  141.9813  166.6094 C.2     1  UNL1        0.1501
      3 F         142.5810  143.0719  167.0285 F       1  UNL1       -0.2032
      4 C         140.7383  141.3389  167.6211 C.2     1  UNL1        0.0363
      5 C         139.7975  140.2483  167.2020 C.2     1  UNL1        0.0696
      6 C         139.7587  139.8002  165.7711 C.2     1  UNL1        0.0718
      7 N         138.9422  138.7568  165.0679 N.2     1  UNL1       -0.2538
      8 C         139.3395  138.7543  163.6215 C.2     1  UNL1        0.0518
      9 C         138.7740  137.8659  162.5533 C.3     1  UNL1        0.0514
     10 C         140.4016  139.7962  163.4307 C.2     1  UNL1       -0.0198
     11 C         141.0847  140.1326  162.1383 C.3     1  UNL1        0.0283
     12 C         140.6607  140.4426  164.7593 C.3     1  UNL1        0.0976
     13 C         142.8328  143.7343  162.1144 C.3     1  UNL1        0.0922
     14 C         144.3074  143.4605  162.1430 C.3     1  UNL1        0.0231
     15 C         144.8799  142.5441  163.1834 C.3     1  UNL1        0.0232
     16 C         143.9779  141.9017  164.1953 C.3     1  UNL1        0.0907
     17 N         142.5034  142.1756  164.1666 N.pl3   1  UNL1       -0.3069
     18 C         141.9309  143.0919  163.1261 C.3     1  UNL1        0.1101
     19 C         141.5847  144.0803  159.8621 C.2     1  UNL1        0.2891
     20 O         141.4816  142.5937  159.6908 O.2     1  UNL1       -0.2607
     21 N         142.2603  144.6506  161.0739 N.am    1  UNL1       -0.2942
     22 H         142.3279  145.6263  161.1863 H       1  UNL1        0.1503
     23 C         139.8670  146.8293  156.7407 C.3     1  UNL1        0.0905
     24 C         140.4395  145.9129  157.7812 C.1     1  UNL1       -0.0810
     25 C         141.0122  144.9966  158.8217 C.1     1  UNL1       -0.0073
     26 C         138.8955  139.6059  168.2139 C.2     1  UNL1        0.2440
     27 N         137.7640  138.7312  167.7618 N.am    1  UNL1       -0.3253
     28 O         139.1252  139.8383  169.6779 O.2     1  UNL1       -0.2703
     29 H         137.6133  138.5787  166.8009 H       1  UNL1        0.1453
     30 H         137.1720  138.3096  168.4259 H       1  UNL1        0.1453
@<TRIPOS>BOND
     1    23    24    1
     2    24    25    3
     3    25    19    1
     4    19    20    2
     5    19    21   am
     6    13    21    1
     7    13    14    1
     8    14    15    1
     9    15    16    1
    10    16    17    1
    11    17     1    1
    12     1     2    2
    13     2     3    1
    14     2     4    1
    15     4     5    2
    16     5    26    1
    17    26    27   am
    18    26    28    2
    19     5     6    1
    20     6     7    2
    21     7     8    1
    22     8     9    1
    23     8    10    2
    24    10    11    1
    25    10    12    1
    26    17    18    1
    27    18    13    1
    28    12     1    1
    29    12     6    1
    30    21    22    1
    31    27    29    1
    32    27    30    1
