@<TRIPOS>MOLECULE
*****
 42 47 0 0 0
SMALL
GASTEIGER

@<TRIPOS>ATOM
      1 C         141.3033  141.6174  164.9551 C.ar    1  UNL1        0.0929
      2 C         140.8276  141.3324  166.3488 C.ar    1  UNL1        0.1497
      3 O         139.6828  140.3673  166.2595 O.2     1  UNL1       -0.4533
      4 C         139.4509  140.0559  164.8106 C.ar    1  UNL1        0.1476
      5 C         138.4572  139.1687  164.1212 C.ar    1  UNL1        0.0376
      6 C         138.4651  139.0541  162.6257 C.ar    1  UNL1        0.0054
      7 C         139.4666  139.8267  161.8195 C.ar    1  UNL1        0.0274
      8 C         140.4604  140.7139  162.5089 C.ar    1  UNL1        0.1432
      9 F         141.4619  141.4865  161.7027 F       1  UNL1       -0.2041
     10 C         140.4525  140.8285  164.0044 C.ar    1  UNL1        0.0693
     11 C         141.3968  141.9108  167.6103 C.ar    1  UNL1        0.0349
     12 C         142.7899  141.5541  168.0371 C.ar    1  UNL1        0.0053
     13 C         143.3591  142.1326  169.2986 C.ar    1  UNL1        0.0297
     14 C         142.5353  143.0677  170.1334 C.ar    1  UNL1        0.1401
     15 F         143.1045  143.6461  171.3949 F       1  UNL1       -0.2042
     16 C         141.1422  143.4244  169.7066 C.ar    1  UNL1        0.0297
     17 C         140.5730  142.8459  168.4451 C.ar    1  UNL1        0.0053
     18 C         139.4745  139.7120  160.3239 C.ar    1  UNL1       -0.0016
     19 C         138.4492  140.4445  159.5101 C.ar    1  UNL1        0.0043
     20 C         138.4570  140.3298  158.0145 C.ar    1  UNL1        0.0533
     21 C         139.4901  139.4826  157.3327 C.ar    1  UNL1        0.0042
     22 C         140.5155  138.7501  158.1465 C.ar    1  UNL1       -0.0041
     23 C         140.5076  138.8648  159.6420 C.ar    1  UNL1       -0.0218
     24 C         141.5329  138.1323  160.4558 C.3     1  UNL1        0.0310
     25 C         137.4317  141.0623  157.2008 C.2     1  UNL1        0.2461
     26 O         137.2883  142.5491  157.3374 O.2     1  UNL1       -0.2701
     27 N         136.5498  140.3079  156.2504 N.am    1  UNL1       -0.2976
     28 H         136.6439  139.3321  156.1607 H       1  UNL1        0.1500
     29 C         135.5245  141.0404  155.4367 C.3     1  UNL1        0.1092
     30 C         134.9348  141.9407  154.3918 C.3     1  UNL1        0.0274
     31 C         136.4229  141.7779  154.4885 C.3     1  UNL1        0.0274
     32 C         134.2701  140.5574  156.1022 C.ar    1  UNL1        0.1549
     33 N         134.3513  139.5731  157.2313 N.ar    1  UNL1       -0.2276
     34 C         133.0968  139.0901  157.8968 C.ar    1  UNL1        0.1019
     35 C         131.7611  139.5912  157.4334 C.ar    1  UNL1        0.0413
     36 C         131.6799  140.5754  156.3044 C.ar    1  UNL1        0.1019
     37 N         132.9344  141.0585  155.6388 N.ar    1  UNL1       -0.2276
     38 C         143.2940  144.8977  163.9415 C.3     1  UNL1        0.1109
     39 N         142.1656  143.9841  164.3184 N.am    1  UNL1       -0.2991
     40 C         142.4318  142.5309  164.5782 C.2     1  UNL1        0.2490
     41 O         143.8264  141.9914  164.4610 O.2     1  UNL1       -0.2700
     42 H         141.2502  144.3383  164.3953 H       1  UNL1        0.1498
@<TRIPOS>BOND
     1    38    39    1
     2    39    40   am
     3    40    41    2
     4    40     1    1
     5     1     2   ar
     6     2    11    1
     7    11    12   ar
     8    12    13   ar
     9    13    14   ar
    10    14    15    1
    11    14    16   ar
    12    16    17   ar
    13     2     3   ar
    14     3     4   ar
    15     4     5   ar
    16     5     6   ar
    17     6     7   ar
    18     7    18    1
    19    18    19   ar
    20    19    20   ar
    21    20    25    1
    22    25    26    2
    23    25    27   am
    24    27    29    1
    25    29    32    1
    26    32    33   ar
    27    33    34   ar
    28    34    35   ar
    29    35    36   ar
    30    36    37   ar
    31    29    30    1
    32    30    31    1
    33    20    21   ar
    34    21    22   ar
    35    22    23   ar
    36    23    24    1
    37     7     8   ar
    38     8     9    1
    39     8    10   ar
    40    10     1   ar
    41    17    11   ar
    42    10     4   ar
    43    23    18   ar
    44    31    29    1
    45    37    32   ar
    46    39    42    1
    47    27    28    1
@<TRIPOS>MOLECULE
*****
 42 47 0 0 0
SMALL
GASTEIGER

@<TRIPOS>ATOM
      1 C         141.5126  141.5455  164.9694 C.ar    1  UNL1        0.0929
      2 C         140.9968  141.7371  166.3648 C.ar    1  UNL1        0.1497
      3 O         139.6940  142.4758  166.2800 O.2     1  UNL1       -0.4533
      4 C         139.4047  142.7406  164.8321 C.ar    1  UNL1        0.1476
      5 C         138.2630  143.4311  164.1467 C.ar    1  UNL1        0.0376
      6 C         138.2453  143.5465  162.6513 C.ar    1  UNL1        0.0054
      7 C         139.3692  142.9715  161.8413 C.ar    1  UNL1        0.0274
      8 C         140.5109  142.2811  162.5267 C.ar    1  UNL1        0.1432
      9 F         141.6349  141.7061  161.7167 F       1  UNL1       -0.2041
     10 C         140.5286  142.1656  164.0221 C.ar    1  UNL1        0.0693
     11 C         141.6662  141.2719  167.6239 C.ar    1  UNL1        0.0349
     12 C         141.3107  139.9395  168.2141 C.ar    1  UNL1        0.0053
     13 C         141.9801  139.4742  169.4732 C.ar    1  UNL1        0.0297
     14 C         143.0050  140.3413  170.1422 C.ar    1  UNL1        0.1401
     15 F         143.6744  139.8761  171.4013 F       1  UNL1       -0.2042
     16 C         143.3605  141.6737  169.5521 C.ar    1  UNL1        0.0297
     17 C         142.6911  142.1390  168.2929 C.ar    1  UNL1        0.0053
     18 C         139.3515  143.0869  160.3458 C.ar    1  UNL1       -0.0016
     19 C         138.7464  141.9934  159.5163 C.ar    1  UNL1        0.0043
     20 C         138.7287  142.1089  158.0208 C.ar    1  UNL1        0.0533
     21 C         139.3160  143.3179  157.3549 C.ar    1  UNL1        0.0042
     22 C         139.9210  144.4114  158.1845 C.ar    1  UNL1       -0.0041
     23 C         139.9388  144.2959  159.6799 C.ar    1  UNL1       -0.0218
     24 C         140.5438  145.3895  160.5095 C.3     1  UNL1        0.0310
     25 C         138.1236  141.0154  157.1913 C.2     1  UNL1        0.2461
     26 O         138.2359  139.5873  157.6359 O.2     1  UNL1       -0.2701
     27 N         137.4063  141.3500  155.9171 N.am    1  UNL1       -0.2976
     28 H         137.3326  142.2874  155.6253 H       1  UNL1        0.1500
     29 C         136.8013  140.2565  155.0876 C.3     1  UNL1        0.1092
     30 C         136.6988  139.1024  154.1351 C.3     1  UNL1        0.0274
     31 C         138.0383  139.7021  154.4453 C.3     1  UNL1        0.0274
     32 C         135.3543  140.4311  155.4419 C.ar    1  UNL1        0.1549
     33 N         134.7971  139.7700  156.6676 N.ar    1  UNL1       -0.2276
     34 C         133.3500  139.9447  157.0218 C.ar    1  UNL1        0.1019
     35 C         132.4601  140.7804  156.1503 C.ar    1  UNL1        0.0413
     36 C         133.0172  141.4415  154.9246 C.ar    1  UNL1        0.1019
     37 N         134.4643  141.2669  154.5703 N.ar    1  UNL1       -0.2276
     38 C         145.2317  140.9654  163.7115 C.3     1  UNL1        0.1109
     39 N         143.9559  141.6560  164.0928 N.am    1  UNL1       -0.2991
     40 C         142.7884  140.8548  164.5881 C.2     1  UNL1        0.2490
     41 O         142.8968  139.3632  164.7020 O.2     1  UNL1       -0.2700
     42 H         143.8848  142.6351  164.0180 H       1  UNL1        0.1498
@<TRIPOS>BOND
     1    38    39    1
     2    39    40   am
     3    40    41    2
     4    40     1    1
     5     1     2   ar
     6     2    11    1
     7    11    12   ar
     8    12    13   ar
     9    13    14   ar
    10    14    15    1
    11    14    16   ar
    12    16    17   ar
    13     2     3   ar
    14     3     4   ar
    15     4     5   ar
    16     5     6   ar
    17     6     7   ar
    18     7    18    1
    19    18    19   ar
    20    19    20   ar
    21    20    25    1
    22    25    26    2
    23    25    27   am
    24    27    29    1
    25    29    32    1
    26    32    33   ar
    27    33    34   ar
    28    34    35   ar
    29    35    36   ar
    30    36    37   ar
    31    29    30    1
    32    30    31    1
    33    20    21   ar
    34    21    22   ar
    35    22    23   ar
    36    23    24    1
    37     7     8   ar
    38     8     9    1
    39     8    10   ar
    40    10     1   ar
    41    17    11   ar
    42    10     4   ar
    43    23    18   ar
    44    31    29    1
    45    37    32   ar
    46    39    42    1
    47    27    28    1
@<TRIPOS>MOLECULE
*****
 42 47 0 0 0
SMALL
GASTEIGER

@<TRIPOS>ATOM
      1 C         141.4566  141.5851  165.0672 C.ar    1  UNL1        0.0929
      2 C         141.0646  141.9285  166.4738 C.ar    1  UNL1        0.1497
      3 O         139.9199  142.8961  166.4128 O.2     1  UNL1       -0.4533
      4 C         139.6046  143.1506  164.9685 C.ar    1  UNL1        0.1476
      5 C         138.5753  144.0155  164.3033 C.ar    1  UNL1        0.0376
      6 C         138.4958  144.0701  162.8064 C.ar    1  UNL1        0.0054
      7 C         139.4455  143.2599  161.9748 C.ar    1  UNL1        0.0274
      8 C         140.4748  142.3951  162.6401 C.ar    1  UNL1        0.1432
      9 F         141.4245  141.5849  161.8085 F       1  UNL1       -0.2041
     10 C         140.5543  142.3404  164.1369 C.ar    1  UNL1        0.0693
     11 C         141.7047  141.3976  167.7221 C.ar    1  UNL1        0.0349
     12 C         142.7950  142.1770  168.3956 C.ar    1  UNL1        0.0053
     13 C         143.4352  141.6461  169.6440 C.ar    1  UNL1        0.0297
     14 C         142.9850  140.3358  170.2188 C.ar    1  UNL1        0.1401
     15 F         143.6252  139.8049  171.4671 F       1  UNL1       -0.2042
     16 C         141.8947  139.5564  169.5452 C.ar    1  UNL1        0.0297
     17 C         141.2546  140.0873  168.2969 C.ar    1  UNL1        0.0053
     18 C         139.3660  143.3146  160.4779 C.ar    1  UNL1       -0.0016
     19 C         138.5298  142.3157  159.7343 C.ar    1  UNL1        0.0043
     20 C         138.4503  142.3704  158.2373 C.ar    1  UNL1        0.0533
     21 C         139.2069  143.4240  157.4841 C.ar    1  UNL1        0.0042
     22 C         140.0431  144.4230  158.2278 C.ar    1  UNL1       -0.0041
     23 C         140.1226  144.3683  159.7246 C.ar    1  UNL1       -0.0218
     24 C         140.9588  145.3672  160.4683 C.3     1  UNL1        0.0310
     25 C         137.6141  141.3715  157.4937 C.2     1  UNL1        0.2461
     26 O         137.0868  140.1592  158.2024 O.2     1  UNL1       -0.2701
     27 N         137.3053  141.5849  156.0414 N.am    1  UNL1       -0.2976
     28 H         137.6514  142.3806  155.5763 H       1  UNL1        0.1500
     29 C         136.4691  140.5860  155.2978 C.3     1  UNL1        0.1092
     30 C         135.2590  139.9019  154.7343 C.3     1  UNL1        0.0274
     31 C         135.1019  141.1456  155.5582 C.3     1  UNL1        0.0274
     32 C         137.5458  139.6796  154.7792 C.ar    1  UNL1        0.1549
     33 N         137.3915  138.1917  154.8901 N.ar    1  UNL1       -0.2276
     34 C         138.4683  137.2853  154.3715 C.ar    1  UNL1        0.1019
     35 C         139.6994  137.8667  153.7420 C.ar    1  UNL1        0.0413
     36 C         139.8537  139.3546  153.6311 C.ar    1  UNL1        0.1019
     37 N         138.7770  140.2611  154.1498 N.ar    1  UNL1       -0.2276
     38 C         145.0662  140.2214  164.1390 C.3     1  UNL1        0.1109
     39 N         143.9651  141.1560  164.5441 N.am    1  UNL1       -0.2991
     40 C         142.5577  140.6505  164.6620 C.2     1  UNL1        0.2490
     41 O         142.2515  139.2106  164.3747 O.2     1  UNL1       -0.2700
     42 H         144.1661  142.1011  164.7327 H       1  UNL1        0.1498
@<TRIPOS>BOND
     1    38    39    1
     2    39    40   am
     3    40    41    2
     4    40     1    1
     5     1     2   ar
     6     2    11    1
     7    11    12   ar
     8    12    13   ar
     9    13    14   ar
    10    14    15    1
    11    14    16   ar
    12    16    17   ar
    13     2     3   ar
    14     3     4   ar
    15     4     5   ar
    16     5     6   ar
    17     6     7   ar
    18     7    18    1
    19    18    19   ar
    20    19    20   ar
    21    20    25    1
    22    25    26    2
    23    25    27   am
    24    27    29    1
    25    29    32    1
    26    32    33   ar
    27    33    34   ar
    28    34    35   ar
    29    35    36   ar
    30    36    37   ar
    31    29    30    1
    32    30    31    1
    33    20    21   ar
    34    21    22   ar
    35    22    23   ar
    36    23    24    1
    37     7     8   ar
    38     8     9    1
    39     8    10   ar
    40    10     1   ar
    41    17    11   ar
    42    10     4   ar
    43    23    18   ar
    44    31    29    1
    45    37    32   ar
    46    39    42    1
    47    27    28    1
@<TRIPOS>MOLECULE
*****
 42 47 0 0 0
SMALL
GASTEIGER

@<TRIPOS>ATOM
      1 C         141.1342  140.7550  163.9363 C.ar    1  UNL1        0.0929
      2 C         141.6583  140.4291  165.3034 C.ar    1  UNL1        0.1497
      3 O         142.9204  139.6354  165.1389 O.2     1  UNL1       -0.4533
      4 C         143.1764  139.4708  163.6701 C.ar    1  UNL1        0.1476
      5 C         144.2721  138.7802  162.9134 C.ar    1  UNL1        0.0376
      6 C         144.2638  138.7816  161.4135 C.ar    1  UNL1        0.0054
      7 C         143.1598  139.4736  160.6702 C.ar    1  UNL1        0.0274
      8 C         142.0641  140.1641  161.4269 C.ar    1  UNL1        0.1432
      9 F         140.9602  140.8561  160.6836 F       1  UNL1       -0.2041
     10 C         142.0724  140.1627  162.9268 C.ar    1  UNL1        0.0693
     11 C         141.0305  140.8270  166.6063 C.ar    1  UNL1        0.0349
     12 C         140.1271  139.8704  167.3266 C.ar    1  UNL1        0.0053
     13 C         139.4993  140.2684  168.6295 C.ar    1  UNL1        0.0297
     14 C         139.7749  141.6228  169.2121 C.ar    1  UNL1        0.1401
     15 F         139.1471  142.0207  170.5150 F       1  UNL1       -0.2042
     16 C         140.6783  142.5794  168.4918 C.ar    1  UNL1        0.0297
     17 C         141.3061  142.1815  167.1889 C.ar    1  UNL1        0.0053
     18 C         143.1515  139.4749  159.1702 C.ar    1  UNL1       -0.0016
     19 C         142.6388  138.2803  158.4219 C.ar    1  UNL1        0.0043
     20 C         142.6305  138.2817  156.9219 C.ar    1  UNL1        0.0533
     21 C         143.1350  139.4777  156.1702 C.ar    1  UNL1        0.0042
     22 C         143.6478  140.6724  156.9186 C.ar    1  UNL1       -0.0041
     23 C         143.6561  140.6709  158.4185 C.ar    1  UNL1       -0.0218
     24 C         144.1688  141.8656  159.1669 C.3     1  UNL1        0.0310
     25 C         142.1177  137.0871  156.1736 C.2     1  UNL1        0.2461
     26 O         140.6639  136.7249  156.2448 O.2     1  UNL1       -0.2701
     27 N         143.0588  136.2547  155.3542 N.am    1  UNL1       -0.2976
     28 H         144.0131  136.4924  155.3075 H       1  UNL1        0.1500
     29 C         142.5461  135.0601  154.6059 C.3     1  UNL1        0.1092
     30 C         141.8970  134.2445  153.5273 C.3     1  UNL1        0.0274
     31 C         141.9754  135.7366  153.3948 C.3     1  UNL1        0.0274
     32 C         142.9386  133.9687  155.5571 C.ar    1  UNL1        0.1549
     33 N         142.3297  132.6041  155.4255 N.ar    1  UNL1       -0.2276
     34 C         142.7223  131.5128  156.3767 C.ar    1  UNL1        0.1019
     35 C         143.7237  131.7859  157.4595 C.ar    1  UNL1        0.0413
     36 C         144.3326  133.1504  157.5911 C.ar    1  UNL1        0.1019
     37 N         143.9400  134.2418  156.6399 N.ar    1  UNL1       -0.2276
     38 C         137.3529  141.5998  163.0769 C.3     1  UNL1        0.1109
     39 N         138.5969  140.8188  163.3812 N.am    1  UNL1       -0.2991
     40 C         139.8903  141.5360  163.6320 C.2     1  UNL1        0.2490
     41 O         139.9396  143.0342  163.5784 O.2     1  UNL1       -0.2700
     42 H         138.5644  139.8355  163.4164 H       1  UNL1        0.1498
@<TRIPOS>BOND
     1    38    39    1
     2    39    40   am
     3    40    41    2
     4    40     1    1
     5     1     2   ar
     6     2    11    1
     7    11    12   ar
     8    12    13   ar
     9    13    14   ar
    10    14    15    1
    11    14    16   ar
    12    16    17   ar
    13     2     3   ar
    14     3     4   ar
    15     4     5   ar
    16     5     6   ar
    17     6     7   ar
    18     7    18    1
    19    18    19   ar
    20    19    20   ar
    21    20    25    1
    22    25    26    2
    23    25    27   am
    24    27    29    1
    25    29    32    1
    26    32    33   ar
    27    33    34   ar
    28    34    35   ar
    29    35    36   ar
    30    36    37   ar
    31    29    30    1
    32    30    31    1
    33    20    21   ar
    34    21    22   ar
    35    22    23   ar
    36    23    24    1
    37     7     8   ar
    38     8     9    1
    39     8    10   ar
    40    10     1   ar
    41    17    11   ar
    42    10     4   ar
    43    23    18   ar
    44    31    29    1
    45    37    32   ar
    46    39    42    1
    47    27    28    1
@<TRIPOS>MOLECULE
*****
 42 47 0 0 0
SMALL
GASTEIGER

@<TRIPOS>ATOM
      1 C         141.4282  141.4311  165.1779 C.ar    1  UNL1        0.0929
      2 C         141.9450  141.7271  166.5546 C.ar    1  UNL1        0.1497
      3 O         143.0568  142.7259  166.4274 O.2     1  UNL1       -0.4533
      4 C         143.2271  143.0473  164.9722 C.ar    1  UNL1        0.1476
      5 C         144.1687  143.9652  164.2505 C.ar    1  UNL1        0.0376
      6 C         144.1037  144.0829  162.7566 C.ar    1  UNL1        0.0054
      7 C         143.0971  143.2826  161.9843 C.ar    1  UNL1        0.0274
      8 C         142.1555  142.3647  162.7060 C.ar    1  UNL1        0.1432
      9 F         141.1489  141.5645  161.9337 F       1  UNL1       -0.2041
     10 C         142.2205  142.2471  164.1999 C.ar    1  UNL1        0.0693
     11 C         141.4389  141.1292  167.8338 C.ar    1  UNL1        0.0349
     12 C         142.1893  140.0053  168.4848 C.ar    1  UNL1        0.0053
     13 C         141.6832  139.4074  169.7640 C.ar    1  UNL1        0.0297
     14 C         140.4268  139.9334  170.3922 C.ar    1  UNL1        0.1401
     15 F         139.9207  139.3355  171.6715 F       1  UNL1       -0.2042
     16 C         139.6764  141.0573  169.7412 C.ar    1  UNL1        0.0297
     17 C         140.1825  141.6552  168.4620 C.ar    1  UNL1        0.0053
     18 C         143.0321  143.4003  160.4903 C.ar    1  UNL1       -0.0016
     19 C         144.0436  142.6936  159.6376 C.ar    1  UNL1        0.0043
     20 C         143.9786  142.8113  158.1436 C.ar    1  UNL1        0.0533
     21 C         142.9020  143.6358  157.5024 C.ar    1  UNL1        0.0042
     22 C         141.8904  144.3425  158.3552 C.ar    1  UNL1       -0.0041
     23 C         141.9555  144.2248  159.8491 C.ar    1  UNL1       -0.0218
     24 C         140.9439  144.9316  160.7019 C.3     1  UNL1        0.0310
     25 C         144.9902  142.1045  157.2909 C.2     1  UNL1        0.2461
     26 O         145.1784  140.6223  157.4234 O.2     1  UNL1       -0.2701
     27 N         145.8136  142.8799  156.3056 N.am    1  UNL1       -0.2976
     28 H         145.6900  143.8527  156.2186 H       1  UNL1        0.1500
     29 C         146.8251  142.1731  155.4529 C.3     1  UNL1        0.1092
     30 C         148.1372  141.6017  155.0036 C.3     1  UNL1        0.0274
     31 C         148.0417  142.3173  156.3184 C.3     1  UNL1        0.0274
     32 C         145.9599  141.7835  154.2912 C.ar    1  UNL1        0.1549
     33 N         145.5479  140.3526  154.1095 N.ar    1  UNL1       -0.2276
     34 C         144.6827  139.9631  152.9478 C.ar    1  UNL1        0.1019
     35 C         144.2294  141.0042  151.9678 C.ar    1  UNL1        0.0413
     36 C         144.6414  142.4350  152.1494 C.ar    1  UNL1        0.1019
     37 N         145.5066  142.8247  153.3112 N.ar    1  UNL1       -0.2276
     38 C         137.9423  140.0580  163.8687 C.3     1  UNL1        0.1109
     39 N         139.0561  141.0038  164.2079 N.am    1  UNL1       -0.2991
     40 C         140.3144  140.4853  164.8387 C.2     1  UNL1        0.2490
     41 O         140.4589  139.0211  165.1303 O.2     1  UNL1       -0.2700
     42 H         138.9612  141.9648  164.0165 H       1  UNL1        0.1498
@<TRIPOS>BOND
     1    38    39    1
     2    39    40   am
     3    40    41    2
     4    40     1    1
     5     1     2   ar
     6     2    11    1
     7    11    12   ar
     8    12    13   ar
     9    13    14   ar
    10    14    15    1
    11    14    16   ar
    12    16    17   ar
    13     2     3   ar
    14     3     4   ar
    15     4     5   ar
    16     5     6   ar
    17     6     7   ar
    18     7    18    1
    19    18    19   ar
    20    19    20   ar
    21    20    25    1
    22    25    26    2
    23    25    27   am
    24    27    29    1
    25    29    32    1
    26    32    33   ar
    27    33    34   ar
    28    34    35   ar
    29    35    36   ar
    30    36    37   ar
    31    29    30    1
    32    30    31    1
    33    20    21   ar
    34    21    22   ar
    35    22    23   ar
    36    23    24    1
    37     7     8   ar
    38     8     9    1
    39     8    10   ar
    40    10     1   ar
    41    17    11   ar
    42    10     4   ar
    43    23    18   ar
    44    31    29    1
    45    37    32   ar
    46    39    42    1
    47    27    28    1
@<TRIPOS>MOLECULE
*****
 42 47 0 0 0
SMALL
GASTEIGER

@<TRIPOS>ATOM
      1 C         141.2185  140.1966  163.3875 C.ar    1  UNL1        0.0929
      2 C         142.0369  141.2149  164.1247 C.ar    1  UNL1        0.1497
      3 O         143.1314  141.6799  163.2105 O.2     1  UNL1       -0.4533
      4 C         142.9895  140.9490  161.9083 C.ar    1  UNL1        0.1476
      5 C         143.7841  140.9998  160.6371 C.ar    1  UNL1        0.0376
      6 C         143.3964  140.1339  159.4753 C.ar    1  UNL1        0.0054
      7 C         142.2141  139.2172  159.5846 C.ar    1  UNL1        0.0274
      8 C         141.4196  139.1664  160.8559 C.ar    1  UNL1        0.1432
      9 F         140.2373  138.2497  160.9653 F       1  UNL1       -0.2041
     10 C         141.8073  140.0323  162.0177 C.ar    1  UNL1        0.0693
     11 C         141.8020  141.6855  165.5295 C.ar    1  UNL1        0.0349
     12 C         142.7877  141.3476  166.6084 C.ar    1  UNL1        0.0053
     13 C         142.5528  141.8182  168.0131 C.ar    1  UNL1        0.0297
     14 C         141.3321  142.6267  168.3390 C.ar    1  UNL1        0.1401
     15 F         141.0972  143.0973  169.7437 F       1  UNL1       -0.2042
     16 C         140.3463  142.9646  167.2601 C.ar    1  UNL1        0.0297
     17 C         140.5813  142.4940  165.8553 C.ar    1  UNL1        0.0053
     18 C         141.8265  138.3513  158.4227 C.ar    1  UNL1       -0.0016
     19 C         142.6891  137.1874  158.0341 C.ar    1  UNL1        0.0043
     20 C         142.3014  136.3214  156.8722 C.ar    1  UNL1        0.0533
     21 C         141.0511  136.6195  156.0990 C.ar    1  UNL1        0.0042
     22 C         140.1885  137.7836  156.4876 C.ar    1  UNL1       -0.0041
     23 C         140.5762  138.6494  157.6495 C.ar    1  UNL1       -0.0218
     24 C         139.7136  139.8134  158.0382 C.3     1  UNL1        0.0310
     25 C         143.1640  135.1575  156.4836 C.2     1  UNL1        0.2461
     26 O         144.2165  135.3235  155.4279 O.2     1  UNL1       -0.2701
     27 N         142.9741  133.8275  157.1507 N.am    1  UNL1       -0.2976
     28 H         142.2833  133.7185  157.8436 H       1  UNL1        0.1500
     29 C         143.8367  132.6635  156.7621 C.3     1  UNL1        0.1092
     30 C         144.9718  131.6830  156.7778 C.3     1  UNL1        0.0274
     31 C         144.9207  132.7875  157.7915 C.3     1  UNL1        0.0274
     32 C         143.0524  132.1353  155.5978 C.ar    1  UNL1        0.1549
     33 N         141.5529  132.1448  155.6373 N.ar    1  UNL1       -0.2276
     34 C         140.7686  131.6165  154.4729 C.ar    1  UNL1        0.1019
     35 C         141.4837  131.0788  153.2690 C.ar    1  UNL1        0.0413
     36 C         142.9830  131.0693  153.2294 C.ar    1  UNL1        0.1019
     37 N         143.7675  131.5975  154.3938 N.ar    1  UNL1       -0.2276
     38 C         138.9869  137.3888  165.0865 C.3     1  UNL1        0.1109
     39 N         140.1839  138.1152  164.5484 N.am    1  UNL1       -0.2991
     40 C         140.0215  139.4702  163.9256 C.2     1  UNL1        0.2490
     41 O         138.6622  140.0986  163.8410 O.2     1  UNL1       -0.2700
     42 H         141.0761  137.7027  164.6039 H       1  UNL1        0.1498
@<TRIPOS>BOND
     1    38    39    1
     2    39    40   am
     3    40    41    2
     4    40     1    1
     5     1     2   ar
     6     2    11    1
     7    11    12   ar
     8    12    13   ar
     9    13    14   ar
    10    14    15    1
    11    14    16   ar
    12    16    17   ar
    13     2     3   ar
    14     3     4   ar
    15     4     5   ar
    16     5     6   ar
    17     6     7   ar
    18     7    18    1
    19    18    19   ar
    20    19    20   ar
    21    20    25    1
    22    25    26    2
    23    25    27   am
    24    27    29    1
    25    29    32    1
    26    32    33   ar
    27    33    34   ar
    28    34    35   ar
    29    35    36   ar
    30    36    37   ar
    31    29    30    1
    32    30    31    1
    33    20    21   ar
    34    21    22   ar
    35    22    23   ar
    36    23    24    1
    37     7     8   ar
    38     8     9    1
    39     8    10   ar
    40    10     1   ar
    41    17    11   ar
    42    10     4   ar
    43    23    18   ar
    44    31    29    1
    45    37    32   ar
    46    39    42    1
    47    27    28    1
@<TRIPOS>MOLECULE
*****
 42 47 0 0 0
SMALL
GASTEIGER

@<TRIPOS>ATOM
      1 C         142.3488  133.8356  155.7906 C.ar    1  UNL1        0.0929
      2 C         141.7037  133.4191  154.5020 C.ar    1  UNL1        0.1497
      3 O         140.9980  134.6128  153.9300 O.2     1  UNL1       -0.4533
      4 C         141.2069  135.7669  154.8651 C.ar    1  UNL1        0.1476
      5 C         140.7449  137.1932  154.8180 C.ar    1  UNL1        0.0376
      6 C         141.1177  138.1391  155.9208 C.ar    1  UNL1        0.0054
      7 C         141.9525  137.6587  157.0707 C.ar    1  UNL1        0.0274
      8 C         142.4145  136.2325  157.1178 C.ar    1  UNL1        0.1432
      9 F         143.2494  135.7521  158.2677 F       1  UNL1       -0.2041
     10 C         142.0418  135.2866  156.0150 C.ar    1  UNL1        0.0693
     11 C         141.7552  132.0495  153.8925 C.ar    1  UNL1        0.0349
     12 C         140.6775  131.0518  154.1975 C.ar    1  UNL1        0.0053
     13 C         140.7291  129.6822  153.5879 C.ar    1  UNL1        0.0297
     14 C         141.8583  129.3103  152.6734 C.ar    1  UNL1        0.1401
     15 F         141.9099  127.9407  152.0638 F       1  UNL1       -0.2042
     16 C         142.9360  130.3080  152.3684 C.ar    1  UNL1        0.0297
     17 C         142.8845  131.6776  152.9779 C.ar    1  UNL1        0.0053
     18 C         142.3253  138.6047  158.1736 C.ar    1  UNL1       -0.0016
     19 C         141.7057  138.4551  159.5314 C.ar    1  UNL1        0.0043
     20 C         142.0785  139.4011  160.6342 C.ar    1  UNL1        0.0533
     21 C         143.0708  140.4966  160.3792 C.ar    1  UNL1        0.0042
     22 C         143.6904  140.6462  159.0213 C.ar    1  UNL1       -0.0041
     23 C         143.3176  139.7002  157.9185 C.ar    1  UNL1       -0.0218
     24 C         143.9372  139.8498  156.5606 C.3     1  UNL1        0.0310
     25 C         141.4589  139.2515  161.9921 C.2     1  UNL1        0.2461
     26 O         142.3150  139.3381  163.2207 O.2     1  UNL1       -0.2701
     27 N         139.9832  139.0154  162.1212 N.am    1  UNL1       -0.2976
     28 H         139.4214  138.9585  161.3148 H       1  UNL1        0.1500
     29 C         139.3637  138.8658  163.4790 C.3     1  UNL1        0.1092
     30 C         138.8903  138.2240  164.7495 C.3     1  UNL1        0.0274
     31 C         139.5697  137.3963  163.6989 C.3     1  UNL1        0.0274
     32 C         138.9425  140.2832  163.7308 C.ar    1  UNL1        0.1549
     33 N         137.8319  140.8900  162.9254 N.ar    1  UNL1       -0.2276
     34 C         137.4108  142.3074  163.1773 C.ar    1  UNL1        0.1019
     35 C         138.1002  143.1182  164.2343 C.ar    1  UNL1        0.0413
     36 C         139.2107  142.5115  165.0396 C.ar    1  UNL1        0.1019
     37 N         139.6319  141.0940  164.7878 N.ar    1  UNL1       -0.2276
     38 C         145.3902  132.4329  157.9196 C.3     1  UNL1        0.1109
     39 N         144.5803  133.3130  157.0143 N.am    1  UNL1       -0.2991
     40 C         143.1587  132.9555  156.6959 C.2     1  UNL1        0.2490
     41 O         142.5471  131.7180  157.2828 O.2     1  UNL1       -0.2700
     42 H         144.9817  134.1252  156.6291 H       1  UNL1        0.1498
@<TRIPOS>BOND
     1    38    39    1
     2    39    40   am
     3    40    41    2
     4    40     1    1
     5     1     2   ar
     6     2    11    1
     7    11    12   ar
     8    12    13   ar
     9    13    14   ar
    10    14    15    1
    11    14    16   ar
    12    16    17   ar
    13     2     3   ar
    14     3     4   ar
    15     4     5   ar
    16     5     6   ar
    17     6     7   ar
    18     7    18    1
    19    18    19   ar
    20    19    20   ar
    21    20    25    1
    22    25    26    2
    23    25    27   am
    24    27    29    1
    25    29    32    1
    26    32    33   ar
    27    33    34   ar
    28    34    35   ar
    29    35    36   ar
    30    36    37   ar
    31    29    30    1
    32    30    31    1
    33    20    21   ar
    34    21    22   ar
    35    22    23   ar
    36    23    24    1
    37     7     8   ar
    38     8     9    1
    39     8    10   ar
    40    10     1   ar
    41    17    11   ar
    42    10     4   ar
    43    23    18   ar
    44    31    29    1
    45    37    32   ar
    46    39    42    1
    47    27    28    1
@<TRIPOS>MOLECULE
*****
 42 47 0 0 0
SMALL
GASTEIGER

@<TRIPOS>ATOM
      1 C         142.2527  141.5412  160.3173 C.ar    1  UNL1        0.0929
      2 C         142.0194  141.6615  161.7941 C.ar    1  UNL1        0.1497
      3 O         140.9994  140.6344  162.1874 O.2     1  UNL1       -0.4533
      4 C         140.6023  139.8793  160.9537 C.ar    1  UNL1        0.1476
      5 C         139.6355  138.7538  160.7334 C.ar    1  UNL1        0.0376
      6 C         139.4433  138.1888  159.3573 C.ar    1  UNL1        0.0054
      7 C         140.2178  138.7492  158.2015 C.ar    1  UNL1        0.0274
      8 C         141.1846  139.8747  158.4217 C.ar    1  UNL1        0.1432
      9 F         141.9592  140.4351  157.2659 F       1  UNL1       -0.2041
     10 C         141.3769  140.4397  159.7978 C.ar    1  UNL1        0.0693
     11 C         142.6886  142.6375  162.7158 C.ar    1  UNL1        0.0349
     12 C         143.7888  142.1769  163.6254 C.ar    1  UNL1        0.0053
     13 C         144.4580  143.1529  164.5471 C.ar    1  UNL1        0.0297
     14 C         144.0270  144.5896  164.5592 C.ar    1  UNL1        0.1401
     15 F         144.6962  145.5656  165.4809 F       1  UNL1       -0.2042
     16 C         142.9269  145.0502  163.6496 C.ar    1  UNL1        0.0297
     17 C         142.2577  144.0742  162.7279 C.ar    1  UNL1        0.0053
     18 C         140.0255  138.1841  156.8253 C.ar    1  UNL1       -0.0016
     19 C         140.7461  136.9322  156.4211 C.ar    1  UNL1        0.0043
     20 C         140.5538  136.3671  155.0450 C.ar    1  UNL1        0.0533
     21 C         139.6409  137.0540  154.0730 C.ar    1  UNL1        0.0042
     22 C         138.9202  138.3060  154.4772 C.ar    1  UNL1       -0.0041
     23 C         139.1126  138.8710  155.8533 C.ar    1  UNL1       -0.0218
     24 C         138.3919  140.1230  156.2575 C.3     1  UNL1        0.0310
     25 C         141.2745  135.1152  154.6408 C.2     1  UNL1        0.2461
     26 O         142.2286  135.1394  153.4837 O.2     1  UNL1       -0.2701
     27 N         141.0410  133.8391  155.3939 N.am    1  UNL1       -0.2976
     28 H         140.4147  133.8232  156.1533 H       1  UNL1        0.1500
     29 C         141.7616  132.5872  154.9897 C.3     1  UNL1        0.1092
     30 C         142.0892  131.3278  154.2437 C.3     1  UNL1        0.0274
     31 C         140.8802  132.1308  153.8650 C.3     1  UNL1        0.0274
     32 C         142.8932  132.6087  155.9740 C.ar    1  UNL1        0.1549
     33 N         144.0814  131.7160  155.7705 N.ar    1  UNL1       -0.2276
     34 C         145.2130  131.7376  156.7548 C.ar    1  UNL1        0.1019
     35 C         145.1565  132.6518  157.9427 C.ar    1  UNL1        0.0413
     36 C         143.9685  133.5444  158.1462 C.ar    1  UNL1        0.1019
     37 N         142.8368  133.5229  157.1619 N.ar    1  UNL1       -0.2276
     38 C         145.3326  142.5749  158.0378 C.3     1  UNL1        0.1109
     39 N         144.3892  141.7403  158.8523 N.am    1  UNL1       -0.2991
     40 C         143.1961  142.3758  159.5028 C.2     1  UNL1        0.2490
     41 O         142.9466  143.8457  159.3387 O.2     1  UNL1       -0.2700
     42 H         144.5530  140.7755  158.9600 H       1  UNL1        0.1498
@<TRIPOS>BOND
     1    38    39    1
     2    39    40   am
     3    40    41    2
     4    40     1    1
     5     1     2   ar
     6     2    11    1
     7    11    12   ar
     8    12    13   ar
     9    13    14   ar
    10    14    15    1
    11    14    16   ar
    12    16    17   ar
    13     2     3   ar
    14     3     4   ar
    15     4     5   ar
    16     5     6   ar
    17     6     7   ar
    18     7    18    1
    19    18    19   ar
    20    19    20   ar
    21    20    25    1
    22    25    26    2
    23    25    27   am
    24    27    29    1
    25    29    32    1
    26    32    33   ar
    27    33    34   ar
    28    34    35   ar
    29    35    36   ar
    30    36    37   ar
    31    29    30    1
    32    30    31    1
    33    20    21   ar
    34    21    22   ar
    35    22    23   ar
    36    23    24    1
    37     7     8   ar
    38     8     9    1
    39     8    10   ar
    40    10     1   ar
    41    17    11   ar
    42    10     4   ar
    43    23    18   ar
    44    31    29    1
    45    37    32   ar
    46    39    42    1
    47    27    28    1
@<TRIPOS>MOLECULE
*****
 42 47 0 0 0
SMALL
GASTEIGER

@<TRIPOS>ATOM
      1 C         141.1907  141.1281  164.1871 C.ar    1  UNL1        0.0929
      2 C         141.6791  140.7168  165.5444 C.ar    1  UNL1        0.1497
      3 O         142.9541  139.9473  165.3646 O.2     1  UNL1       -0.4533
      4 C         143.2537  139.8831  163.8962 C.ar    1  UNL1        0.1476
      5 C         144.3781  139.2544  163.1278 C.ar    1  UNL1        0.0376
      6 C         144.4126  139.3554  161.6317 C.ar    1  UNL1        0.0054
      7 C         143.3227  140.0852  160.9039 C.ar    1  UNL1        0.0274
      8 C         142.1983  140.7139  161.6723 C.ar    1  UNL1        0.1432
      9 F         141.1085  141.4437  160.9445 F       1  UNL1       -0.2041
     10 C         142.1638  140.6129  163.1685 C.ar    1  UNL1        0.0693
     11 C         141.0100  141.0214  166.8519 C.ar    1  UNL1        0.0349
     12 C         141.1358  142.3875  167.4584 C.ar    1  UNL1        0.0053
     13 C         140.4667  142.6922  168.7658 C.ar    1  UNL1        0.0297
     14 C         139.6719  141.6307  169.4668 C.ar    1  UNL1        0.1401
     15 F         139.0028  141.9354  170.7743 F       1  UNL1       -0.2042
     16 C         139.5461  140.2646  168.8604 C.ar    1  UNL1        0.0297
     17 C         140.2152  139.9600  167.5529 C.ar    1  UNL1        0.0053
     18 C         143.3572  140.1862  159.4077 C.ar    1  UNL1       -0.0016
     19 C         143.0616  138.9794  158.5674 C.ar    1  UNL1        0.0043
     20 C         143.0962  139.0804  157.0712 C.ar    1  UNL1        0.0533
     21 C         143.4263  140.3883  156.4153 C.ar    1  UNL1        0.0042
     22 C         143.7220  141.5953  157.2556 C.ar    1  UNL1       -0.0041
     23 C         143.6874  141.4942  158.7517 C.ar    1  UNL1       -0.0218
     24 C         143.9831  142.7011  159.5920 C.3     1  UNL1        0.0310
     25 C         142.8005  137.8735  156.2310 C.2     1  UNL1        0.2461
     26 O         143.5469  137.6511  154.9491 O.2     1  UNL1       -0.2701
     27 N         141.7585  136.8891  156.6727 N.am    1  UNL1       -0.2976
     28 H         141.2686  137.0351  157.5141 H       1  UNL1        0.1500
     29 C         141.4629  135.6822  155.8325 C.3     1  UNL1        0.1092
     30 C         141.5514  134.2868  155.2893 C.3     1  UNL1        0.0274
     31 C         142.4663  134.7203  156.3962 C.3     1  UNL1        0.0274
     32 C         140.3568  136.2250  154.9770 C.ar    1  UNL1        0.1549
     33 N         139.2446  137.0147  155.6010 N.ar    1  UNL1       -0.2276
     34 C         138.1385  137.5575  154.7454 C.ar    1  UNL1        0.1019
     35 C         138.1445  137.3105  153.2659 C.ar    1  UNL1        0.0413
     36 C         139.2566  136.5209  152.6420 C.ar    1  UNL1        0.1019
     37 N         140.3628  135.9780  153.4975 N.ar    1  UNL1       -0.2276
     38 C         137.4946  142.0183  163.0483 C.3     1  UNL1        0.1109
     39 N         138.7379  141.2301  163.3365 N.am    1  UNL1       -0.2991
     40 C         139.9474  141.9163  163.8990 C.2     1  UNL1        0.2490
     41 O         139.9136  143.3905  164.1732 O.2     1  UNL1       -0.2700
     42 H         138.7601  140.2624  163.1564 H       1  UNL1        0.1498
@<TRIPOS>BOND
     1    38    39    1
     2    39    40   am
     3    40    41    2
     4    40     1    1
     5     1     2   ar
     6     2    11    1
     7    11    12   ar
     8    12    13   ar
     9    13    14   ar
    10    14    15    1
    11    14    16   ar
    12    16    17   ar
    13     2     3   ar
    14     3     4   ar
    15     4     5   ar
    16     5     6   ar
    17     6     7   ar
    18     7    18    1
    19    18    19   ar
    20    19    20   ar
    21    20    25    1
    22    25    26    2
    23    25    27   am
    24    27    29    1
    25    29    32    1
    26    32    33   ar
    27    33    34   ar
    28    34    35   ar
    29    35    36   ar
    30    36    37   ar
    31    29    30    1
    32    30    31    1
    33    20    21   ar
    34    21    22   ar
    35    22    23   ar
    36    23    24    1
    37     7     8   ar
    38     8     9    1
    39     8    10   ar
    40    10     1   ar
    41    17    11   ar
    42    10     4   ar
    43    23    18   ar
    44    31    29    1
    45    37    32   ar
    46    39    42    1
    47    27    28    1
