@<TRIPOS>MOLECULE
*****
 33 35 0 0 0
SMALL
GASTEIGER

@<TRIPOS>ATOM
      1 C         140.5280  142.1287  166.1864 C.2     1  UNL1       -0.0040
      2 C         139.8901  140.7936  165.9400 C.2     1  UNL1       -0.0221
      3 C         141.1416  142.4317  167.5211 C.ar    1  UNL1       -0.0001
      4 C         140.3307  143.1156  168.5816 C.ar    1  UNL1        0.0031
      5 C         140.9444  143.4187  169.9164 C.ar    1  UNL1        0.0366
      6 C         142.3690  143.0378  170.1906 C.ar    1  UNL1        0.1337
      7 O         142.9828  143.3408  171.5254 O.3     1  UNL1       -0.5055
      8 C         143.1800  142.3538  169.1302 C.ar    1  UNL1        0.0366
      9 C         142.5663  142.0508  167.7955 C.ar    1  UNL1        0.0031
     10 H         142.4762  143.7680  172.1879 H       1  UNL1        0.2922
     11 C         140.6004  145.2247  162.9216 C.ar    1  UNL1        0.1386
     12 C         139.4482  145.1728  163.8805 C.ar    1  UNL1        0.0369
     13 C         139.4240  144.1408  164.9688 C.ar    1  UNL1        0.0031
     14 C         140.5521  143.1607  165.0981 C.ar    1  UNL1       -0.0001
     15 C         141.7043  143.2126  164.1392 C.ar    1  UNL1        0.0031
     16 C         141.7284  144.2446  163.0509 C.ar    1  UNL1        0.0369
     17 O         140.6245  146.2567  161.8333 O.3     1  UNL1       -0.4740
     18 C         139.8094  146.0552  160.5904 C.3     1  UNL1        0.2226
     19 C         140.3012  145.1362  159.5117 C.3     1  UNL1        0.1201
     20 C         139.3171  143.4211  157.8264 C.3     1  UNL1        0.0898
     21 N         139.5836  143.8473  159.2397 N.3     1  UNL1       -0.2672
     22 C         139.1326  142.9847  160.3809 C.3     1  UNL1        0.0898
     23 C         139.2764  140.4905  164.6052 C.ar    1  UNL1       -0.0040
     24 C         137.9459  141.0792  164.2404 C.ar    1  UNL1       -0.0003
     25 C         137.3322  140.7762  162.9057 C.ar    1  UNL1       -0.0000
     26 C         138.0490  139.8844  161.9357 C.ar    1  UNL1       -0.0000
     27 C         139.3795  139.2956  162.3005 C.ar    1  UNL1       -0.0000
     28 C         139.9932  139.5987  163.6353 C.ar    1  UNL1       -0.0003
     29 C         139.8660  139.7616  167.0283 C.3     1  UNL1        0.0289
     30 C         138.5582  139.3258  167.6197 C.3     1  UNL1        0.0364
     31 C         137.7010  138.3316  166.8940 C.3     1  UNL1        0.1375
     32 O         136.6751  137.5360  167.6453 O.3     1  UNL1       -0.3820
     33 H         137.1204  136.9416  168.2693 H       1  UNL1        0.2104
@<TRIPOS>BOND
     1    20    21    1
     2    21    22    1
     3    21    19    1
     4    19    18    1
     5    18    17    1
     6    17    11    1
     7    11    12   ar
     8    12    13   ar
     9    13    14   ar
    10    14     1    1
    11     1     2    2
    12     2    29    1
    13    29    30    1
    14    30    31    1
    15    31    32    1
    16     2    23    1
    17    23    24   ar
    18    24    25   ar
    19    25    26   ar
    20    26    27   ar
    21    27    28   ar
    22     1     3    1
    23     3     4   ar
    24     4     5   ar
    25     5     6   ar
    26     6     7    1
    27     6     8   ar
    28     8     9   ar
    29    14    15   ar
    30    15    16   ar
    31    16    11   ar
    32    28    23   ar
    33     9     3   ar
    34    32    33    1
    35     7    10    1
@<TRIPOS>MOLECULE
*****
 33 35 0 0 0
SMALL
GASTEIGER

@<TRIPOS>ATOM
      1 C         140.5327  142.1163  166.1525 C.2     1  UNL1       -0.0040
      2 C         139.8708  140.7882  165.9339 C.2     1  UNL1       -0.0221
      3 C         141.1496  142.4371  167.4816 C.ar    1  UNL1       -0.0001
      4 C         140.3363  143.1207  168.5405 C.ar    1  UNL1        0.0031
      5 C         140.9533  143.4415  169.8697 C.ar    1  UNL1        0.0366
      6 C         142.3834  143.0786  170.1399 C.ar    1  UNL1        0.1337
      7 O         143.0004  143.3994  171.4690 O.3     1  UNL1       -0.5055
      8 C         143.1966  142.3950  169.0809 C.ar    1  UNL1        0.0366
      9 C         142.5798  142.0742  167.7518 C.ar    1  UNL1        0.0031
     10 H         142.4924  143.8264  172.1305 H       1  UNL1        0.2922
     11 C         140.6676  145.1386  162.8212 C.ar    1  UNL1        0.1386
     12 C         141.7764  144.1399  162.9731 C.ar    1  UNL1        0.0369
     13 C         141.7314  143.1325  164.0836 C.ar    1  UNL1        0.0031
     14 C         140.5777  143.1238  165.0421 C.ar    1  UNL1       -0.0001
     15 C         139.4689  144.1225  164.8901 C.ar    1  UNL1        0.0031
     16 C         139.5139  145.1299  163.7797 C.ar    1  UNL1        0.0369
     17 O         140.7126  146.1460  161.7107 O.3     1  UNL1       -0.4740
     18 C         140.0065  145.8680  160.4169 C.3     1  UNL1        0.2226
     19 C         140.3934  144.6762  159.5923 C.3     1  UNL1        0.1201
     20 C         141.8834  145.7936  157.7808 C.3     1  UNL1        0.0898
     21 N         141.6567  144.7016  158.7839 N.3     1  UNL1       -0.2672
     22 C         142.6934  143.6352  158.9787 C.3     1  UNL1        0.0898
     23 C         139.2539  140.4673  164.6047 C.ar    1  UNL1       -0.0040
     24 C         139.9393  139.5151  163.6701 C.ar    1  UNL1       -0.0003
     25 C         139.3224  139.1943  162.3410 C.ar    1  UNL1       -0.0000
     26 C         138.0201  139.8257  161.9465 C.ar    1  UNL1       -0.0000
     27 C         137.3348  140.7779  162.8812 C.ar    1  UNL1       -0.0000
     28 C         137.9517  141.0987  164.2103 C.ar    1  UNL1       -0.0003
     29 C         139.8259  139.7808  167.0443 C.3     1  UNL1        0.0289
     30 C         138.5061  139.3458  167.6094 C.3     1  UNL1        0.0364
     31 C         137.6862  138.3149  166.8919 C.3     1  UNL1        0.1375
     32 O         136.6585  137.5196  167.6411 O.3     1  UNL1       -0.3820
     33 H         137.1003  136.9517  168.2916 H       1  UNL1        0.2104
@<TRIPOS>BOND
     1    20    21    1
     2    21    22    1
     3    21    19    1
     4    19    18    1
     5    18    17    1
     6    17    11    1
     7    11    12   ar
     8    12    13   ar
     9    13    14   ar
    10    14     1    1
    11     1     2    2
    12     2    29    1
    13    29    30    1
    14    30    31    1
    15    31    32    1
    16     2    23    1
    17    23    24   ar
    18    24    25   ar
    19    25    26   ar
    20    26    27   ar
    21    27    28   ar
    22     1     3    1
    23     3     4   ar
    24     4     5   ar
    25     5     6   ar
    26     6     7    1
    27     6     8   ar
    28     8     9   ar
    29    14    15   ar
    30    15    16   ar
    31    16    11   ar
    32    28    23   ar
    33     9     3   ar
    34    32    33    1
    35     7    10    1
@<TRIPOS>MOLECULE
*****
 33 35 0 0 0
SMALL
GASTEIGER

@<TRIPOS>ATOM
      1 C         140.6005  142.0906  166.2970 C.2     1  UNL1       -0.0040
      2 C         139.9905  140.7310  166.1262 C.2     1  UNL1       -0.0221
      3 C         141.2368  142.4685  167.6017 C.ar    1  UNL1       -0.0001
      4 C         142.6642  142.0974  167.8753 C.ar    1  UNL1        0.0031
      5 C         143.3005  142.4754  169.1801 C.ar    1  UNL1        0.0366
      6 C         142.5094  143.2244  170.2111 C.ar    1  UNL1        0.1337
      7 O         143.1457  143.6024  171.5159 O.3     1  UNL1       -0.5055
      8 C         141.0820  143.5956  169.9375 C.ar    1  UNL1        0.0366
      9 C         140.4457  143.2176  168.6328 C.ar    1  UNL1        0.0031
     10 H         144.0373  143.3706  171.6869 H       1  UNL1        0.2922
     11 C         140.5216  145.0357  162.8955 C.ar    1  UNL1        0.1386
     12 C         141.6234  144.0217  162.9843 C.ar    1  UNL1        0.0369
     13 C         141.6497  143.0401  164.1181 C.ar    1  UNL1        0.0031
     14 C         140.5742  143.0723  165.1632 C.ar    1  UNL1       -0.0001
     15 C         139.4724  144.0862  165.0744 C.ar    1  UNL1        0.0031
     16 C         139.4461  145.0679  163.9406 C.ar    1  UNL1        0.0369
     17 O         140.4953  146.0174  161.7617 O.3     1  UNL1       -0.4740
     18 C         140.1894  145.5481  160.3703 C.3     1  UNL1        0.2226
     19 C         141.3081  145.2119  159.4292 C.3     1  UNL1        0.1201
     20 C         139.9876  146.2854  157.4660 C.3     1  UNL1        0.0898
     21 N         141.1762  145.5197  157.9670 N.3     1  UNL1       -0.2672
     22 C         142.2328  145.0617  157.0059 C.3     1  UNL1        0.0898
     23 C         139.3541  140.3529  164.8215 C.ar    1  UNL1       -0.0040
     24 C         138.0681  140.9993  164.3992 C.ar    1  UNL1       -0.0003
     25 C         137.4317  140.6213  163.0945 C.ar    1  UNL1       -0.0000
     26 C         138.0814  139.5970  162.2121 C.ar    1  UNL1       -0.0000
     27 C         139.3675  138.9507  162.6343 C.ar    1  UNL1       -0.0000
     28 C         140.0038  139.3287  163.9391 C.ar    1  UNL1       -0.0003
     29 C         140.0168  139.7493  167.2600 C.3     1  UNL1        0.0289
     30 C         138.8487  139.6533  168.1963 C.3     1  UNL1        0.0364
     31 C         138.9792  140.1371  169.6101 C.3     1  UNL1        0.1375
     32 O         137.9790  139.7114  170.6437 O.3     1  UNL1       -0.3820
     33 H         137.1099  140.0824  170.4248 H       1  UNL1        0.2104
@<TRIPOS>BOND
     1    20    21    1
     2    21    22    1
     3    21    19    1
     4    19    18    1
     5    18    17    1
     6    17    11    1
     7    11    12   ar
     8    12    13   ar
     9    13    14   ar
    10    14     1    1
    11     1     2    2
    12     2    29    1
    13    29    30    1
    14    30    31    1
    15    31    32    1
    16     2    23    1
    17    23    24   ar
    18    24    25   ar
    19    25    26   ar
    20    26    27   ar
    21    27    28   ar
    22     1     3    1
    23     3     4   ar
    24     4     5   ar
    25     5     6   ar
    26     6     7    1
    27     6     8   ar
    28     8     9   ar
    29    14    15   ar
    30    15    16   ar
    31    16    11   ar
    32    28    23   ar
    33     9     3   ar
    34    32    33    1
    35     7    10    1
@<TRIPOS>MOLECULE
*****
 33 35 0 0 0
SMALL
GASTEIGER

@<TRIPOS>ATOM
      1 C         140.6530  142.0757  166.3536 C.2     1  UNL1       -0.0040
      2 C         139.9999  140.7350  166.1929 C.2     1  UNL1       -0.0221
      3 C         141.2858  142.4498  167.6611 C.ar    1  UNL1       -0.0001
      4 C         140.4943  143.2026  168.6892 C.ar    1  UNL1        0.0031
      5 C         141.1272  143.5767  169.9967 C.ar    1  UNL1        0.0366
      6 C         142.5514  143.1980  170.2761 C.ar    1  UNL1        0.1337
      7 O         143.1843  143.5721  171.5837 O.3     1  UNL1       -0.5055
      8 C         143.3429  142.4453  169.2481 C.ar    1  UNL1        0.0366
      9 C         142.7101  142.0712  167.9406 C.ar    1  UNL1        0.0031
     10 H         142.6899  144.0424  172.2259 H       1  UNL1        0.2922
     11 C         140.7140  144.9756  162.9131 C.ar    1  UNL1        0.1386
     12 C         139.6171  145.0458  163.9337 C.ar    1  UNL1        0.0369
     13 C         139.5968  144.0792  165.0806 C.ar    1  UNL1        0.0031
     14 C         140.6734  143.0424  165.2068 C.ar    1  UNL1       -0.0001
     15 C         141.7703  142.9722  164.1861 C.ar    1  UNL1        0.0031
     16 C         141.7906  143.9388  163.0393 C.ar    1  UNL1        0.0369
     17 O         140.7343  145.9422  161.7662 O.3     1  UNL1       -0.4740
     18 C         139.9918  145.6226  160.5028 C.3     1  UNL1        0.2226
     19 C         140.5540  144.6244  159.5345 C.3     1  UNL1        0.1201
     20 C         139.7381  142.8097  157.8638 C.3     1  UNL1        0.0898
     21 N         139.8171  143.3465  159.2622 N.3     1  UNL1       -0.2672
     22 C         139.1592  142.6056  160.3883 C.3     1  UNL1        0.0898
     23 C         139.3671  140.3608  164.8854 C.ar    1  UNL1       -0.0040
     24 C         138.0857  141.0134  164.4584 C.ar    1  UNL1       -0.0003
     25 C         137.4529  140.6393  163.1510 C.ar    1  UNL1       -0.0000
     26 C         138.1014  139.6126  162.2704 C.ar    1  UNL1       -0.0000
     27 C         139.3828  138.9600  162.6973 C.ar    1  UNL1       -0.0000
     28 C         140.0156  139.3342  164.0049 C.ar    1  UNL1       -0.0003
     29 C         139.9796  139.7684  167.3398 C.3     1  UNL1        0.0289
     30 C         138.7892  139.7104  168.2507 C.3     1  UNL1        0.0364
     31 C         138.9047  140.1905  169.6671 C.3     1  UNL1        0.1375
     32 O         137.9892  139.6429  170.7216 O.3     1  UNL1       -0.3820
     33 H         137.0778  139.9153  170.5317 H       1  UNL1        0.2104
@<TRIPOS>BOND
     1    20    21    1
     2    21    22    1
     3    21    19    1
     4    19    18    1
     5    18    17    1
     6    17    11    1
     7    11    12   ar
     8    12    13   ar
     9    13    14   ar
    10    14     1    1
    11     1     2    2
    12     2    29    1
    13    29    30    1
    14    30    31    1
    15    31    32    1
    16     2    23    1
    17    23    24   ar
    18    24    25   ar
    19    25    26   ar
    20    26    27   ar
    21    27    28   ar
    22     1     3    1
    23     3     4   ar
    24     4     5   ar
    25     5     6   ar
    26     6     7    1
    27     6     8   ar
    28     8     9   ar
    29    14    15   ar
    30    15    16   ar
    31    16    11   ar
    32    28    23   ar
    33     9     3   ar
    34    32    33    1
    35     7    10    1
@<TRIPOS>MOLECULE
*****
 33 35 0 0 0
SMALL
GASTEIGER

@<TRIPOS>ATOM
      1 C         141.3983  140.5754  166.3663 C.2     1  UNL1       -0.0040
      2 C         140.1881  139.7440  166.0598 C.2     1  UNL1       -0.0221
      3 C         141.6295  141.0778  167.7607 C.ar    1  UNL1       -0.0001
      4 C         142.4605  140.2765  168.7184 C.ar    1  UNL1        0.0031
      5 C         142.6917  140.7789  170.1128 C.ar    1  UNL1        0.0366
      6 C         142.0919  142.0826  170.5493 C.ar    1  UNL1        0.1337
      7 O         142.3231  142.5850  171.9437 O.3     1  UNL1       -0.5055
      8 C         141.2608  142.8839  169.5916 C.ar    1  UNL1        0.0366
      9 C         141.0296  142.3815  168.1973 C.ar    1  UNL1        0.0031
     10 H         142.8422  142.0844  172.5420 H       1  UNL1        0.2922
     11 C         144.3352  141.5629  163.1030 C.ar    1  UNL1        0.1386
     12 C         143.1593  142.4605  163.3505 C.ar    1  UNL1        0.0369
     13 C         142.1803  142.1314  164.4383 C.ar    1  UNL1        0.0031
     14 C         142.3773  140.9046  165.2786 C.ar    1  UNL1       -0.0001
     15 C         143.5532  140.0069  165.0311 C.ar    1  UNL1        0.0031
     16 C         144.5322  140.3361  163.9433 C.ar    1  UNL1        0.0369
     17 O         145.3142  141.8920  162.0152 O.3     1  UNL1       -0.4740
     18 C         144.8474  142.5892  160.7719 C.3     1  UNL1        0.2226
     19 C         144.2756  141.7941  159.6358 C.3     1  UNL1        0.1201
     20 C         143.4135  141.9345  157.1889 C.3     1  UNL1        0.0898
     21 N         143.4443  142.4737  158.5883 N.3     1  UNL1       -0.2672
     22 C         142.6437  143.6923  158.9403 C.3     1  UNL1        0.0898
     23 C         139.9568  139.2416  164.6654 C.ar    1  UNL1       -0.0040
     24 C         139.2044  140.0852  163.6795 C.ar    1  UNL1       -0.0003
     25 C         138.9731  139.5828  162.2852 C.ar    1  UNL1       -0.0000
     26 C         139.4943  138.2368  161.8768 C.ar    1  UNL1       -0.0000
     27 C         140.2467  137.3932  162.8628 C.ar    1  UNL1       -0.0000
     28 C         140.4780  137.8956  164.2571 C.ar    1  UNL1       -0.0003
     29 C         139.2091  139.4148  167.1476 C.3     1  UNL1        0.0289
     30 C         137.8053  139.0180  166.7983 C.3     1  UNL1        0.0364
     31 C         137.3043  137.6479  167.1475 C.3     1  UNL1        0.1375
     32 O         136.3826  137.4617  168.3161 O.3     1  UNL1       -0.3820
     33 H         136.8533  137.6763  169.1366 H       1  UNL1        0.2104
@<TRIPOS>BOND
     1    20    21    1
     2    21    22    1
     3    21    19    1
     4    19    18    1
     5    18    17    1
     6    17    11    1
     7    11    12   ar
     8    12    13   ar
     9    13    14   ar
    10    14     1    1
    11     1     2    2
    12     2    29    1
    13    29    30    1
    14    30    31    1
    15    31    32    1
    16     2    23    1
    17    23    24   ar
    18    24    25   ar
    19    25    26   ar
    20    26    27   ar
    21    27    28   ar
    22     1     3    1
    23     3     4   ar
    24     4     5   ar
    25     5     6   ar
    26     6     7    1
    27     6     8   ar
    28     8     9   ar
    29    14    15   ar
    30    15    16   ar
    31    16    11   ar
    32    28    23   ar
    33     9     3   ar
    34    32    33    1
    35     7    10    1
@<TRIPOS>MOLECULE
*****
 33 35 0 0 0
SMALL
GASTEIGER

@<TRIPOS>ATOM
      1 C         140.7989  140.1698  164.8395 C.2     1  UNL1       -0.0040
      2 C         142.2307  139.7446  164.9773 C.2     1  UNL1       -0.0221
      3 C         139.7228  139.4315  165.5790 C.ar    1  UNL1       -0.0001
      4 C         139.1622  139.9978  166.8498 C.ar    1  UNL1        0.0031
      5 C         138.0861  139.2594  167.5894 C.ar    1  UNL1        0.0366
      6 C         137.5706  137.9549  167.0581 C.ar    1  UNL1        0.1337
      7 O         136.4945  137.2165  167.7977 O.3     1  UNL1       -0.5055
      8 C         138.1312  137.3885  165.7873 C.ar    1  UNL1        0.0366
      9 C         139.2073  138.1268  165.0478 C.ar    1  UNL1        0.0031
     10 H         136.1443  137.5702  168.5916 H       1  UNL1        0.2922
     11 C         139.7316  143.6602  162.2074 C.ar    1  UNL1        0.1386
     12 C         140.0981  143.8885  163.6438 C.ar    1  UNL1        0.0369
     13 C         140.4539  142.7251  164.5212 C.ar    1  UNL1        0.0031
     14 C         140.4431  141.3332  163.9621 C.ar    1  UNL1       -0.0001
     15 C         140.0765  141.1049  162.5256 C.ar    1  UNL1        0.0031
     16 C         139.7208  142.2683  161.6483 C.ar    1  UNL1        0.0369
     17 O         139.3758  144.8236  161.3300 O.3     1  UNL1       -0.4740
     18 C         140.4566  145.5948  160.6321 C.3     1  UNL1        0.2226
     19 C         141.2703  144.9392  159.5559 C.3     1  UNL1        0.1201
     20 C         142.9518  144.0724  161.3367 C.3     1  UNL1        0.0898
     21 N         142.4579  144.0985  159.9206 N.3     1  UNL1       -0.2672
     22 C         143.1515  143.2840  158.8692 C.3     1  UNL1        0.0898
     23 C         143.3068  140.4828  164.2377 C.ar    1  UNL1       -0.0040
     24 C         144.0504  141.5978  164.9115 C.ar    1  UNL1       -0.0003
     25 C         145.1265  142.3361  164.1720 C.ar    1  UNL1       -0.0000
     26 C         145.4591  141.9594  162.7586 C.ar    1  UNL1       -0.0000
     27 C         144.7156  140.8444  162.0848 C.ar    1  UNL1       -0.0000
     28 C         143.6394  140.1061  162.8244 C.ar    1  UNL1       -0.0003
     29 C         142.5864  138.5811  165.8546 C.3     1  UNL1        0.0289
     30 C         143.1681  138.8191  167.2167 C.3     1  UNL1        0.0364
     31 C         142.5903  139.8819  168.1036 C.3     1  UNL1        0.1375
     32 O         141.7146  139.4994  169.2599 O.3     1  UNL1       -0.3820
     33 H         140.8946  139.1023  168.9270 H       1  UNL1        0.2104
@<TRIPOS>BOND
     1    20    21    1
     2    21    22    1
     3    21    19    1
     4    19    18    1
     5    18    17    1
     6    17    11    1
     7    11    12   ar
     8    12    13   ar
     9    13    14   ar
    10    14     1    1
    11     1     2    2
    12     2    29    1
    13    29    30    1
    14    30    31    1
    15    31    32    1
    16     2    23    1
    17    23    24   ar
    18    24    25   ar
    19    25    26   ar
    20    26    27   ar
    21    27    28   ar
    22     1     3    1
    23     3     4   ar
    24     4     5   ar
    25     5     6   ar
    26     6     7    1
    27     6     8   ar
    28     8     9   ar
    29    14    15   ar
    30    15    16   ar
    31    16    11   ar
    32    28    23   ar
    33     9     3   ar
    34    32    33    1
    35     7    10    1
@<TRIPOS>MOLECULE
*****
 33 35 0 0 0
SMALL
GASTEIGER

@<TRIPOS>ATOM
      1 C         140.8148  140.1692  164.8885 C.2     1  UNL1       -0.0040
      2 C         142.2506  139.8259  165.1540 C.2     1  UNL1       -0.0221
      3 C         139.7237  139.4580  165.6326 C.ar    1  UNL1       -0.0001
      4 C         139.1677  138.1711  165.0992 C.ar    1  UNL1        0.0031
      5 C         138.0765  137.4599  165.8434 C.ar    1  UNL1        0.0366
      6 C         137.5416  138.0357  167.1210 C.ar    1  UNL1        0.1337
      7 O         136.4504  137.3245  167.8652 O.3     1  UNL1       -0.5055
      8 C         138.0976  139.3226  167.6544 C.ar    1  UNL1        0.0366
      9 C         139.1887  140.0338  166.9103 C.ar    1  UNL1        0.0031
     10 H         136.1031  136.5206  167.5320 H       1  UNL1        0.2922
     11 C         139.7805  143.3325  161.8598 C.ar    1  UNL1        0.1386
     12 C         139.7794  141.8859  161.4635 C.ar    1  UNL1        0.0369
     13 C         140.1242  140.8314  162.4731 C.ar    1  UNL1        0.0031
     14 C         140.4700  141.2236  163.8789 C.ar    1  UNL1       -0.0001
     15 C         140.4711  142.6703  164.2752 C.ar    1  UNL1        0.0031
     16 C         140.1264  143.7247  163.2656 C.ar    1  UNL1        0.0369
     17 O         139.4358  144.3870  160.8502 O.3     1  UNL1       -0.4740
     18 C         140.4575  145.4130  160.4585 C.3     1  UNL1        0.2226
     19 C         141.3810  145.1499  159.3062 C.3     1  UNL1        0.1201
     20 C         143.0057  143.2095  159.8943 C.3     1  UNL1        0.0898
     21 N         141.8912  143.7617  159.0558 N.3     1  UNL1       -0.2672
     22 C         141.2869  142.9256  157.9668 C.3     1  UNL1        0.0898
     23 C         143.3418  140.5370  164.4098 C.ar    1  UNL1       -0.0040
     24 C         143.7462  140.0687  163.0434 C.ar    1  UNL1       -0.0003
     25 C         144.8373  140.7798  162.2992 C.ar    1  UNL1       -0.0000
     26 C         145.5240  141.9593  162.9215 C.ar    1  UNL1       -0.0000
     27 C         145.1196  142.4277  164.2879 C.ar    1  UNL1       -0.0000
     28 C         144.0285  141.7165  165.0321 C.ar    1  UNL1       -0.0003
     29 C         142.5954  138.7714  166.1635 C.3     1  UNL1        0.0289
     30 C         143.9812  138.1989  166.2067 C.3     1  UNL1        0.0364
     31 C         144.3785  137.2795  167.3234 C.3     1  UNL1        0.1375
     32 O         145.6777  136.5332  167.2541 O.3     1  UNL1       -0.3820
     33 H         145.6462  135.8964  166.5230 H       1  UNL1        0.2104
@<TRIPOS>BOND
     1    20    21    1
     2    21    22    1
     3    21    19    1
     4    19    18    1
     5    18    17    1
     6    17    11    1
     7    11    12   ar
     8    12    13   ar
     9    13    14   ar
    10    14     1    1
    11     1     2    2
    12     2    29    1
    13    29    30    1
    14    30    31    1
    15    31    32    1
    16     2    23    1
    17    23    24   ar
    18    24    25   ar
    19    25    26   ar
    20    26    27   ar
    21    27    28   ar
    22     1     3    1
    23     3     4   ar
    24     4     5   ar
    25     5     6   ar
    26     6     7    1
    27     6     8   ar
    28     8     9   ar
    29    14    15   ar
    30    15    16   ar
    31    16    11   ar
    32    28    23   ar
    33     9     3   ar
    34    32    33    1
    35     7    10    1
@<TRIPOS>MOLECULE
*****
 33 35 0 0 0
SMALL
GASTEIGER

@<TRIPOS>ATOM
      1 C         140.9074  140.9854  166.5719 C.2     1  UNL1       -0.0040
      2 C         142.1817  140.1987  166.4876 C.2     1  UNL1       -0.0221
      3 C         140.4685  141.5636  167.8846 C.ar    1  UNL1       -0.0001
      4 C         140.8994  142.9458  168.2769 C.ar    1  UNL1        0.0031
      5 C         140.4605  143.5240  169.5896 C.ar    1  UNL1        0.0366
      6 C         139.5907  142.7200  170.5099 C.ar    1  UNL1        0.1337
      7 O         139.1517  143.2982  171.8226 O.3     1  UNL1       -0.5055
      8 C         139.1598  141.3378  170.1176 C.ar    1  UNL1        0.0366
      9 C         139.5987  140.7596  168.8050 C.ar    1  UNL1        0.0031
     10 H         139.4209  144.1616  172.0677 H       1  UNL1        0.2922
     11 C         138.4011  141.6109  162.8872 C.ar    1  UNL1        0.1386
     12 C         139.6163  142.4587  163.1205 C.ar    1  UNL1        0.0369
     13 C         140.4518  142.2502  164.3487 C.ar    1  UNL1        0.0031
     14 C         140.0720  141.1939  165.3437 C.ar    1  UNL1       -0.0001
     15 C         138.8567  140.3462  165.1104 C.ar    1  UNL1        0.0031
     16 C         138.0213  140.5547  163.8822 C.ar    1  UNL1        0.0369
     17 O         137.5657  141.8194  161.6590 O.3     1  UNL1       -0.4740
     18 C         138.2239  141.9509  160.3176 C.3     1  UNL1        0.2226
     19 C         138.3843  140.7455  159.4394 C.3     1  UNL1        0.1201
     20 C         139.7079  138.5948  158.8290 C.3     1  UNL1        0.0898
     21 N         139.6437  139.9331  159.5033 N.3     1  UNL1       -0.2672
     22 C         140.8388  140.4591  160.2415 C.3     1  UNL1        0.0898
     23 C         142.6207  139.6205  165.1749 C.ar    1  UNL1       -0.0040
     24 C         143.7881  140.2166  164.4456 C.ar    1  UNL1       -0.0003
     25 C         144.2270  139.6385  163.1330 C.ar    1  UNL1       -0.0000
     26 C         143.4986  138.4641  162.5496 C.ar    1  UNL1       -0.0000
     27 C         142.3312  137.8679  163.2789 C.ar    1  UNL1       -0.0000
     28 C         141.8923  138.4462  164.5916 C.ar    1  UNL1       -0.0003
     29 C         143.0172  139.9902  167.7158 C.3     1  UNL1        0.0289
     30 C         142.6291  138.9438  168.7181 C.3     1  UNL1        0.0364
     31 C         142.5610  139.2903  170.1759 C.3     1  UNL1        0.1375
     32 O         143.7184  138.9751  171.0766 O.3     1  UNL1       -0.3820
     33 H         143.8236  138.0131  171.1431 H       1  UNL1        0.2104
@<TRIPOS>BOND
     1    20    21    1
     2    21    22    1
     3    21    19    1
     4    19    18    1
     5    18    17    1
     6    17    11    1
     7    11    12   ar
     8    12    13   ar
     9    13    14   ar
    10    14     1    1
    11     1     2    2
    12     2    29    1
    13    29    30    1
    14    30    31    1
    15    31    32    1
    16     2    23    1
    17    23    24   ar
    18    24    25   ar
    19    25    26   ar
    20    26    27   ar
    21    27    28   ar
    22     1     3    1
    23     3     4   ar
    24     4     5   ar
    25     5     6   ar
    26     6     7    1
    27     6     8   ar
    28     8     9   ar
    29    14    15   ar
    30    15    16   ar
    31    16    11   ar
    32    28    23   ar
    33     9     3   ar
    34    32    33    1
    35     7    10    1
@<TRIPOS>MOLECULE
*****
 33 35 0 0 0
SMALL
GASTEIGER

@<TRIPOS>ATOM
      1 C         140.5749  140.5665  166.0640 C.2     1  UNL1       -0.0040
      2 C         142.0113  140.4240  166.4718 C.2     1  UNL1       -0.0221
      3 C         139.5007  139.8698  166.8455 C.ar    1  UNL1       -0.0001
      4 C         138.6263  138.8518  166.1755 C.ar    1  UNL1        0.0031
      5 C         137.5521  138.1551  166.9571 C.ar    1  UNL1        0.0366
      6 C         137.3524  138.4764  168.4085 C.ar    1  UNL1        0.1337
      7 O         136.2782  137.7797  169.1901 O.3     1  UNL1       -0.5055
      8 C         138.2269  139.4944  169.0785 C.ar    1  UNL1        0.0366
      9 C         139.3010  140.1911  168.2970 C.ar    1  UNL1        0.0031
     10 H         135.7319  137.1438  168.7716 H       1  UNL1        0.2922
     11 C         139.4881  143.0841  162.4960 C.ar    1  UNL1        0.1386
     12 C         139.8918  141.6518  162.3083 C.ar    1  UNL1        0.0369
     13 C         140.2541  140.8126  163.4976 C.ar    1  UNL1        0.0031
     14 C         140.2126  141.4057  164.8747 C.ar    1  UNL1       -0.0001
     15 C         139.8089  142.8381  165.0624 C.ar    1  UNL1        0.0031
     16 C         139.4467  143.6773  163.8731 C.ar    1  UNL1        0.0369
     17 O         139.1258  143.9233  161.3067 O.3     1  UNL1       -0.4740
     18 C         140.1119  144.1096  160.1918 C.3     1  UNL1        0.2226
     19 C         141.3751  144.8830  160.4292 C.3     1  UNL1        0.1201
     20 C         143.2618  143.1249  160.7446 C.3     1  UNL1        0.0898
     21 N         142.4721  144.2900  161.2629 N.3     1  UNL1       -0.2672
     22 C         142.7793  144.8623  162.6150 C.3     1  UNL1        0.0898
     23 C         143.0855  141.1208  165.6903 C.ar    1  UNL1       -0.0040
     24 C         143.4501  142.5388  166.0162 C.ar    1  UNL1       -0.0003
     25 C         144.5243  143.2356  165.2347 C.ar    1  UNL1       -0.0000
     26 C         145.2339  142.5142  164.1274 C.ar    1  UNL1       -0.0000
     27 C         144.8694  141.0961  163.8016 C.ar    1  UNL1       -0.0000
     28 C         143.7951  140.3994  164.5831 C.ar    1  UNL1       -0.0003
     29 C         142.3736  139.5848  167.6612 C.3     1  UNL1        0.0289
     30 C         142.6778  140.2393  168.9762 C.3     1  UNL1        0.0364
     31 C         142.5674  139.4527  170.2487 C.3     1  UNL1        0.1375
     32 O         143.7307  139.3876  171.1934 O.3     1  UNL1       -0.3820
     33 H         144.4635  138.9121  170.7716 H       1  UNL1        0.2104
@<TRIPOS>BOND
     1    20    21    1
     2    21    22    1
     3    21    19    1
     4    19    18    1
     5    18    17    1
     6    17    11    1
     7    11    12   ar
     8    12    13   ar
     9    13    14   ar
    10    14     1    1
    11     1     2    2
    12     2    29    1
    13    29    30    1
    14    30    31    1
    15    31    32    1
    16     2    23    1
    17    23    24   ar
    18    24    25   ar
    19    25    26   ar
    20    26    27   ar
    21    27    28   ar
    22     1     3    1
    23     3     4   ar
    24     4     5   ar
    25     5     6   ar
    26     6     7    1
    27     6     8   ar
    28     8     9   ar
    29    14    15   ar
    30    15    16   ar
    31    16    11   ar
    32    28    23   ar
    33     9     3   ar
    34    32    33    1
    35     7    10    1
