@<TRIPOS>MOLECULE
*****
 34 37 0 0 0
SMALL
GASTEIGER

@<TRIPOS>ATOM
      1 N         138.3468  138.7575  167.4615 N.pl3   1  UNL1       -0.3426
      2 C         138.9308  138.7055  166.0808 C.ar    1  UNL1        0.1254
      3 N         138.2839  137.8598  165.0243 N.ar    1  UNL1       -0.2296
      4 C         138.8679  137.8077  163.6436 C.ar    1  UNL1        0.1002
      5 C         140.0987  138.6014  163.3195 C.ar    1  UNL1        0.0193
      6 C         140.7456  139.4471  164.3761 C.ar    1  UNL1        0.0044
      7 C         140.1616  139.4991  165.7567 C.ar    1  UNL1        0.0327
      8 H         137.5389  138.2366  167.6742 H       1  UNL1        0.1437
      9 H         138.7713  139.3126  168.1550 H       1  UNL1        0.1437
     10 C         140.6827  138.5493  161.9388 C.ar    1  UNL1        0.0015
     11 C         142.1695  138.6124  161.7505 C.ar    1  UNL1        0.0002
     12 C         142.7535  138.5603  160.3698 C.ar    1  UNL1        0.0045
     13 C         141.8507  138.4452  159.1775 C.ar    1  UNL1        0.0536
     14 C         140.3640  138.3822  159.3658 C.ar    1  UNL1        0.0045
     15 C         139.7800  138.4342  160.7465 C.ar    1  UNL1        0.0002
     16 C         142.4347  138.3932  157.7968 C.2     1  UNL1        0.2491
     17 O         142.4783  139.6330  156.9537 O.2     1  UNL1       -0.2699
     18 N         142.9752  137.1013  157.2593 N.am    1  UNL1       -0.2732
     19 C         142.9316  135.8614  158.1025 C.3     1  UNL1        0.1108
     20 C         143.4721  134.5696  157.5649 C.3     1  UNL1        0.0904
     21 N         144.0561  134.5175  156.1843 N.3     1  UNL1       -0.2946
     22 C         144.0996  135.7573  155.3411 C.3     1  UNL1        0.0904
     23 C         143.5592  137.0493  155.8786 C.3     1  UNL1        0.1108
     24 H         143.5178  133.8256  155.6628 H       1  UNL1        0.1233
     25 C         140.8085  140.3448  166.8133 C.ar    1  UNL1        0.0218
     26 C         140.3229  141.7431  167.0562 C.ar    1  UNL1        0.0031
     27 C         140.9698  142.5888  168.1127 C.ar    1  UNL1        0.0231
     28 C         142.1023  142.0363  168.9264 C.ar    1  UNL1        0.1526
     29 N         142.5880  140.6380  168.6835 N.ar    1  UNL1       -0.2399
     30 C         141.9410  139.7923  167.6270 C.ar    1  UNL1        0.0988
     31 C         142.7492  142.8820  169.9829 C.3     1  UNL1        0.4348
     32 F         143.3961  143.7278  171.0394 F       1  UNL1       -0.1644
     33 F         143.9521  141.9861  169.9636 F       1  UNL1       -0.1644
     34 F         141.5463  143.7779  170.0022 F       1  UNL1       -0.1644
@<TRIPOS>BOND
     1     1     2    1
     2     2     3   ar
     3     3     4   ar
     4     4     5   ar
     5     5    10    1
     6    10    11   ar
     7    11    12   ar
     8    12    13   ar
     9    13    16    1
    10    16    17    2
    11    16    18   am
    12    18    19    1
    13    19    20    1
    14    20    21    1
    15    21    22    1
    16    22    23    1
    17    13    14   ar
    18    14    15   ar
    19     5     6   ar
    20     6     7   ar
    21     7    25    1
    22    25    26   ar
    23    26    27   ar
    24    27    28   ar
    25    28    31    1
    26    31    32    1
    27    31    33    1
    28    31    34    1
    29    28    29   ar
    30    29    30   ar
    31     7     2   ar
    32    30    25   ar
    33    15    10   ar
    34    23    18    1
    35     1     8    1
    36     1     9    1
    37    21    24    1
@<TRIPOS>MOLECULE
*****
 34 37 0 0 0
SMALL
GASTEIGER

@<TRIPOS>ATOM
      1 N         138.3637  138.8336  167.4287 N.pl3   1  UNL1       -0.3426
      2 C         138.9818  138.7398  166.0652 C.ar    1  UNL1        0.1254
      3 N         138.3401  137.8913  165.0077 N.ar    1  UNL1       -0.2296
      4 C         138.9582  137.7975  163.6442 C.ar    1  UNL1        0.1002
      5 C         140.2179  138.5521  163.3382 C.ar    1  UNL1        0.0193
      6 C         140.8595  139.4005  164.3957 C.ar    1  UNL1        0.0044
      7 C         140.2415  139.4944  165.7592 C.ar    1  UNL1        0.0327
      8 H         137.5369  138.3383  167.6296 H       1  UNL1        0.1437
      9 H         138.7848  139.3905  168.1228 H       1  UNL1        0.1437
     10 C         140.8359  138.4583  161.9746 C.ar    1  UNL1        0.0015
     11 C         142.2245  137.9134  161.8165 C.ar    1  UNL1        0.0002
     12 C         142.8425  137.8196  160.4529 C.ar    1  UNL1        0.0045
     13 C         142.0721  138.2706  159.2476 C.ar    1  UNL1        0.0536
     14 C         140.6835  138.8155  159.4058 C.ar    1  UNL1        0.0045
     15 C         140.0655  138.9093  160.7693 C.ar    1  UNL1        0.0002
     16 C         142.6901  138.1768  157.8841 C.2     1  UNL1        0.2491
     17 O         142.4906  136.9438  157.0534 O.2     1  UNL1       -0.2699
     18 N         143.5077  139.3159  157.3512 N.am    1  UNL1       -0.2732
     19 C         143.7072  140.5489  158.1819 C.3     1  UNL1        0.1108
     20 C         144.5248  141.6880  157.6490 C.3     1  UNL1        0.0904
     21 N         145.1429  141.5942  156.2855 N.3     1  UNL1       -0.2946
     22 C         144.9434  140.3612  155.4548 C.3     1  UNL1        0.0904
     23 C         144.1258  139.2220  155.9877 C.3     1  UNL1        0.1108
     24 H         146.1491  141.7057  156.4100 H       1  UNL1        0.1233
     25 C         140.8832  140.3429  166.8168 C.ar    1  UNL1        0.0218
     26 C         140.4089  141.7482  167.0408 C.ar    1  UNL1        0.0031
     27 C         141.0506  142.5967  168.0983 C.ar    1  UNL1        0.0231
     28 C         142.1665  142.0399  168.9318 C.ar    1  UNL1        0.1526
     29 N         142.6408  140.6346  168.7078 N.ar    1  UNL1       -0.2399
     30 C         141.9991  139.7861  167.6502 C.ar    1  UNL1        0.0988
     31 C         142.8082  142.8883  169.9893 C.3     1  UNL1        0.4348
     32 F         143.4498  143.7368  171.0468 F       1  UNL1       -0.1644
     33 F         141.6132  143.7949  169.9870 F       1  UNL1       -0.1644
     34 F         144.0032  141.9818  169.9916 F       1  UNL1       -0.1644
@<TRIPOS>BOND
     1     1     2    1
     2     2     3   ar
     3     3     4   ar
     4     4     5   ar
     5     5    10    1
     6    10    11   ar
     7    11    12   ar
     8    12    13   ar
     9    13    16    1
    10    16    17    2
    11    16    18   am
    12    18    19    1
    13    19    20    1
    14    20    21    1
    15    21    22    1
    16    22    23    1
    17    13    14   ar
    18    14    15   ar
    19     5     6   ar
    20     6     7   ar
    21     7    25    1
    22    25    26   ar
    23    26    27   ar
    24    27    28   ar
    25    28    31    1
    26    31    32    1
    27    31    33    1
    28    31    34    1
    29    28    29   ar
    30    29    30   ar
    31     7     2   ar
    32    30    25   ar
    33    15    10   ar
    34    23    18    1
    35     1     8    1
    36     1     9    1
    37    21    24    1
@<TRIPOS>MOLECULE
*****
 34 37 0 0 0
SMALL
GASTEIGER

@<TRIPOS>ATOM
      1 N         143.2306  139.0859  155.7273 N.pl3   1  UNL1       -0.3426
      2 C         143.2345  139.0254  157.2261 C.ar    1  UNL1        0.1254
      3 N         143.6274  140.2330  158.0244 N.ar    1  UNL1       -0.2296
      4 C         143.6314  140.1725  159.5231 C.ar    1  UNL1        0.1002
      5 C         143.2424  138.9045  160.2236 C.ar    1  UNL1        0.0193
      6 C         142.8495  137.6969  159.4253 C.ar    1  UNL1        0.0044
      7 C         142.8455  137.7574  157.9265 C.ar    1  UNL1        0.0327
      8 H         143.4859  139.9182  155.2676 H       1  UNL1        0.1437
      9 H         142.9727  138.2933  155.2033 H       1  UNL1        0.1437
     10 C         143.2464  138.8440  161.7224 C.ar    1  UNL1        0.0015
     11 C         142.2514  137.9815  162.4408 C.ar    1  UNL1        0.0002
     12 C         142.2554  137.9211  163.9396 C.ar    1  UNL1        0.0045
     13 C         143.2543  138.7230  164.7200 C.ar    1  UNL1        0.0536
     14 C         144.2492  139.5855  164.0015 C.ar    1  UNL1        0.0045
     15 C         144.2453  139.6460  162.5027 C.ar    1  UNL1        0.0002
     16 C         143.2582  138.6626  166.2187 C.2     1  UNL1        0.2491
     17 O         144.1938  137.7300  166.9292 O.2     1  UNL1       -0.2699
     18 N         142.3266  139.5347  167.0070 N.am    1  UNL1       -0.2732
     19 C         141.3909  140.4674  166.2965 C.3     1  UNL1        0.1108
     20 C         140.4593  141.3395  167.0847 C.3     1  UNL1        0.0904
     21 N         140.4633  141.2791  168.5835 N.3     1  UNL1       -0.2946
     22 C         141.3988  140.3464  169.2940 C.3     1  UNL1        0.0904
     23 C         142.3305  139.4742  168.5058 C.3     1  UNL1        0.1108
     24 H         139.5184  141.0233  168.8704 H       1  UNL1        0.1233
     25 C         142.4526  136.5497  157.1282 C.ar    1  UNL1        0.0218
     26 C         143.2668  135.2932  157.2191 C.ar    1  UNL1        0.0031
     27 C         142.8739  134.0855  156.4209 C.ar    1  UNL1        0.0231
     28 C         141.6668  134.1344  155.5317 C.ar    1  UNL1        0.1526
     29 N         140.8526  135.3909  155.4408 N.ar    1  UNL1       -0.2399
     30 C         141.2455  136.5986  156.2391 C.ar    1  UNL1        0.0988
     31 C         141.2739  132.9268  154.7335 C.3     1  UNL1        0.4348
     32 F         140.8810  131.7192  153.9352 F       1  UNL1       -0.1644
     33 F         140.8216  133.8149  153.6125 F       1  UNL1       -0.1644
     34 F         141.7262  132.0387  155.8544 F       1  UNL1       -0.1644
@<TRIPOS>BOND
     1     1     2    1
     2     2     3   ar
     3     3     4   ar
     4     4     5   ar
     5     5    10    1
     6    10    11   ar
     7    11    12   ar
     8    12    13   ar
     9    13    16    1
    10    16    17    2
    11    16    18   am
    12    18    19    1
    13    19    20    1
    14    20    21    1
    15    21    22    1
    16    22    23    1
    17    13    14   ar
    18    14    15   ar
    19     5     6   ar
    20     6     7   ar
    21     7    25    1
    22    25    26   ar
    23    26    27   ar
    24    27    28   ar
    25    28    31    1
    26    31    32    1
    27    31    33    1
    28    31    34    1
    29    28    29   ar
    30    29    30   ar
    31     7     2   ar
    32    30    25   ar
    33    15    10   ar
    34    23    18    1
    35     1     8    1
    36     1     9    1
    37    21    24    1
@<TRIPOS>MOLECULE
*****
 34 37 0 0 0
SMALL
GASTEIGER

@<TRIPOS>ATOM
      1 N         138.3673  144.9570  165.5169 N.pl3   1  UNL1       -0.3426
      2 C         139.3025  144.5232  164.4273 C.ar    1  UNL1        0.1254
      3 N         139.3732  145.3001  163.1462 N.ar    1  UNL1       -0.2296
      4 C         140.3083  144.8662  162.0566 C.ar    1  UNL1        0.1002
      5 C         141.1728  143.6554  162.2481 C.ar    1  UNL1        0.0193
      6 C         141.1021  142.8785  163.5293 C.ar    1  UNL1        0.0044
      7 C         140.1669  143.3124  164.6189 C.ar    1  UNL1        0.0327
      8 H         137.7999  145.7517  165.3912 H       1  UNL1        0.1437
      9 H         138.3209  144.4471  166.3578 H       1  UNL1        0.1437
     10 C         142.1079  143.2216  161.1585 C.ar    1  UNL1        0.0015
     11 C         142.0073  143.8373  159.7945 C.ar    1  UNL1        0.0002
     12 C         142.9424  143.4034  158.7048 C.ar    1  UNL1        0.0045
     13 C         143.9783  142.3539  158.9793 C.ar    1  UNL1        0.0536
     14 C         144.0789  141.7381  160.3434 C.ar    1  UNL1        0.0045
     15 C         143.1438  142.1720  161.4330 C.ar    1  UNL1        0.0002
     16 C         144.9134  141.9200  157.8897 C.2     1  UNL1        0.2491
     17 O         146.1986  142.6603  157.6654 O.2     1  UNL1       -0.2699
     18 N         144.5635  140.7458  157.0244 N.am    1  UNL1       -0.2732
     19 C         143.2783  140.0055  157.2486 C.3     1  UNL1        0.1108
     20 C         142.9283  138.8313  156.3833 C.3     1  UNL1        0.0904
     21 N         143.8635  138.3974  155.2937 N.3     1  UNL1       -0.2946
     22 C         145.1486  139.1377  155.0694 C.3     1  UNL1        0.0904
     23 C         145.4986  140.3120  155.9348 C.3     1  UNL1        0.1108
     24 H         143.3397  138.4453  154.4198 H       1  UNL1        0.1233
     25 C         140.0962  142.5354  165.9001 C.ar    1  UNL1        0.0218
     26 C         140.6335  143.1297  167.1682 C.ar    1  UNL1        0.0031
     27 C         140.5628  142.3528  168.4493 C.ar    1  UNL1        0.0231
     28 C         139.9549  140.9816  168.4624 C.ar    1  UNL1        0.1526
     29 N         139.4176  140.3873  167.1943 N.ar    1  UNL1       -0.2399
     30 C         139.4883  141.1642  165.9131 C.ar    1  UNL1        0.0988
     31 C         139.8842  140.2047  169.7436 C.3     1  UNL1        0.4348
     32 F         139.8136  139.4278  171.0247 F       1  UNL1       -0.1644
     33 F         138.6145  140.9166  170.1053 F       1  UNL1       -0.1644
     34 F         141.1540  139.4927  169.3819 F       1  UNL1       -0.1644
@<TRIPOS>BOND
     1     1     2    1
     2     2     3   ar
     3     3     4   ar
     4     4     5   ar
     5     5    10    1
     6    10    11   ar
     7    11    12   ar
     8    12    13   ar
     9    13    16    1
    10    16    17    2
    11    16    18   am
    12    18    19    1
    13    19    20    1
    14    20    21    1
    15    21    22    1
    16    22    23    1
    17    13    14   ar
    18    14    15   ar
    19     5     6   ar
    20     6     7   ar
    21     7    25    1
    22    25    26   ar
    23    26    27   ar
    24    27    28   ar
    25    28    31    1
    26    31    32    1
    27    31    33    1
    28    31    34    1
    29    28    29   ar
    30    29    30   ar
    31     7     2   ar
    32    30    25   ar
    33    15    10   ar
    34    23    18    1
    35     1     8    1
    36     1     9    1
    37    21    24    1
@<TRIPOS>MOLECULE
*****
 34 37 0 0 0
SMALL
GASTEIGER

@<TRIPOS>ATOM
      1 N         141.0898  136.6810  164.4723 N.pl3   1  UNL1       -0.3426
      2 C         141.1251  137.8587  163.5440 C.ar    1  UNL1        0.1254
      3 N         141.2566  137.6444  162.0652 N.ar    1  UNL1       -0.2296
      4 C         141.2919  138.8221  161.1369 C.ar    1  UNL1        0.1002
      5 C         141.1957  140.2141  161.6874 C.ar    1  UNL1        0.0193
      6 C         141.0642  140.4284  163.1661 C.ar    1  UNL1        0.0044
      7 C         141.0289  139.2507  164.0944 C.ar    1  UNL1        0.0327
      8 H         141.1529  135.7673  164.1110 H       1  UNL1        0.1437
      9 H         141.0035  136.8216  165.4429 H       1  UNL1        0.1437
     10 C         141.2311  141.3918  160.7590 C.ar    1  UNL1        0.0015
     11 C         140.5520  142.6721  161.1456 C.ar    1  UNL1        0.0002
     12 C         140.5873  143.8498  160.2173 C.ar    1  UNL1        0.0045
     13 C         141.3017  143.7472  158.9024 C.ar    1  UNL1        0.0536
     14 C         141.9808  142.4668  158.5158 C.ar    1  UNL1        0.0045
     15 C         141.9455  141.2891  159.4441 C.ar    1  UNL1        0.0002
     16 C         141.3370  144.9249  157.9741 C.2     1  UNL1        0.2491
     17 O         142.4038  145.9683  158.1265 O.2     1  UNL1       -0.2699
     18 N         140.3056  145.0592  156.8934 N.am    1  UNL1       -0.2732
     19 C         139.2387  144.0158  156.7410 C.3     1  UNL1        0.1108
     20 C         138.2072  144.1502  155.6603 C.3     1  UNL1        0.0904
     21 N         138.2425  145.3279  154.7319 N.3     1  UNL1       -0.2946
     22 C         139.3093  146.3712  154.8843 C.3     1  UNL1        0.0904
     23 C         140.3409  146.2369  155.9651 C.3     1  UNL1        0.1108
     24 H         137.3469  145.8062  154.8289 H       1  UNL1        0.1233
     25 C         140.8974  139.4650  165.5732 C.ar    1  UNL1        0.0218
     26 C         139.5448  139.6911  166.1809 C.ar    1  UNL1        0.0031
     27 C         139.4132  139.9054  167.6597 C.ar    1  UNL1        0.0231
     28 C         140.6344  139.8938  168.5308 C.ar    1  UNL1        0.1526
     29 N         141.9870  139.6677  167.9231 N.ar    1  UNL1       -0.2399
     30 C         142.1185  139.4534  166.4443 C.ar    1  UNL1        0.0988
     31 C         140.5028  140.1081  170.0095 C.3     1  UNL1        0.4348
     32 F         140.3713  140.3225  171.4883 F       1  UNL1       -0.1644
     33 F         141.7980  139.3842  170.2297 F       1  UNL1       -0.1644
     34 F         139.2077  140.8320  169.7894 F       1  UNL1       -0.1644
@<TRIPOS>BOND
     1     1     2    1
     2     2     3   ar
     3     3     4   ar
     4     4     5   ar
     5     5    10    1
     6    10    11   ar
     7    11    12   ar
     8    12    13   ar
     9    13    16    1
    10    16    17    2
    11    16    18   am
    12    18    19    1
    13    19    20    1
    14    20    21    1
    15    21    22    1
    16    22    23    1
    17    13    14   ar
    18    14    15   ar
    19     5     6   ar
    20     6     7   ar
    21     7    25    1
    22    25    26   ar
    23    26    27   ar
    24    27    28   ar
    25    28    31    1
    26    31    32    1
    27    31    33    1
    28    31    34    1
    29    28    29   ar
    30    29    30   ar
    31     7     2   ar
    32    30    25   ar
    33    15    10   ar
    34    23    18    1
    35     1     8    1
    36     1     9    1
    37    21    24    1
@<TRIPOS>MOLECULE
*****
 34 37 0 0 0
SMALL
GASTEIGER

@<TRIPOS>ATOM
      1 N         138.8446  137.5250  165.1875 N.pl3   1  UNL1       -0.3426
      2 C         139.1810  138.5859  164.1819 C.ar    1  UNL1        0.1254
      3 N         138.5178  138.5814  162.8365 N.ar    1  UNL1       -0.2296
      4 C         138.8542  139.6423  161.8309 C.ar    1  UNL1        0.1002
      5 C         139.8539  140.7077  162.1706 C.ar    1  UNL1        0.0193
      6 C         140.5171  140.7123  163.5160 C.ar    1  UNL1        0.0044
      7 C         140.1807  139.6514  164.5216 C.ar    1  UNL1        0.0327
      8 H         138.1885  136.8257  164.9645 H       1  UNL1        0.1437
      9 H         139.2799  137.5281  166.0706 H       1  UNL1        0.1437
     10 C         140.1903  141.7686  161.1649 C.ar    1  UNL1        0.0015
     11 C         141.0834  141.4453  160.0040 C.ar    1  UNL1        0.0002
     12 C         141.4199  142.5062  158.9984 C.ar    1  UNL1        0.0045
     13 C         140.8632  143.8904  159.1536 C.ar    1  UNL1        0.0536
     14 C         139.9701  144.2137  160.3146 C.ar    1  UNL1        0.0045
     15 C         139.6337  143.1528  161.3202 C.ar    1  UNL1        0.0002
     16 C         141.1996  144.9513  158.1480 C.2     1  UNL1        0.2491
     17 O         142.3855  145.8433  158.3671 O.2     1  UNL1       -0.2699
     18 N         140.3502  145.1201  156.9233 N.am    1  UNL1       -0.2732
     19 C         139.1643  144.2281  156.7042 C.3     1  UNL1        0.1108
     20 C         138.3149  144.3970  155.4795 C.3     1  UNL1        0.0904
     21 N         138.6513  145.4579  154.4739 N.3     1  UNL1       -0.2946
     22 C         139.8372  146.3499  154.6929 C.3     1  UNL1        0.0904
     23 C         140.6867  146.1810  155.9177 C.3     1  UNL1        0.1108
     24 H         137.8351  146.0654  154.4025 H       1  UNL1        0.1233
     25 C         140.8439  139.6560  165.8670 C.ar    1  UNL1        0.0218
     26 C         142.2149  139.0694  166.0294 C.ar    1  UNL1        0.0031
     27 C         142.8782  139.0739  167.3747 C.ar    1  UNL1        0.0231
     28 C         142.1705  139.6652  168.5578 C.ar    1  UNL1        0.1526
     29 N         140.7996  140.2518  168.3955 N.ar    1  UNL1       -0.2399
     30 C         140.1363  140.2472  167.0501 C.ar    1  UNL1        0.0988
     31 C         142.8338  139.6698  169.9032 C.3     1  UNL1        0.4348
     32 F         143.4971  139.6743  171.2485 F       1  UNL1       -0.1644
     33 F         142.9532  141.1636  169.8392 F       1  UNL1       -0.1644
     34 F         142.7144  138.1759  169.9671 F       1  UNL1       -0.1644
@<TRIPOS>BOND
     1     1     2    1
     2     2     3   ar
     3     3     4   ar
     4     4     5   ar
     5     5    10    1
     6    10    11   ar
     7    11    12   ar
     8    12    13   ar
     9    13    16    1
    10    16    17    2
    11    16    18   am
    12    18    19    1
    13    19    20    1
    14    20    21    1
    15    21    22    1
    16    22    23    1
    17    13    14   ar
    18    14    15   ar
    19     5     6   ar
    20     6     7   ar
    21     7    25    1
    22    25    26   ar
    23    26    27   ar
    24    27    28   ar
    25    28    31    1
    26    31    32    1
    27    31    33    1
    28    31    34    1
    29    28    29   ar
    30    29    30   ar
    31     7     2   ar
    32    30    25   ar
    33    15    10   ar
    34    23    18    1
    35     1     8    1
    36     1     9    1
    37    21    24    1
@<TRIPOS>MOLECULE
*****
 34 37 0 0 0
SMALL
GASTEIGER

@<TRIPOS>ATOM
      1 N         143.7254  144.8925  164.1440 N.pl3   1  UNL1       -0.3426
      2 C         143.2750  143.8817  163.1313 C.ar    1  UNL1        0.1254
      3 N         143.7791  143.9574  161.7206 N.ar    1  UNL1       -0.2296
      4 C         143.3287  142.9467  160.7079 C.ar    1  UNL1        0.1002
      5 C         142.3742  141.8603  161.1059 C.ar    1  UNL1        0.0193
      6 C         141.8700  141.7846  162.5165 C.ar    1  UNL1        0.0044
      7 C         142.3205  142.7953  163.5292 C.ar    1  UNL1        0.0327
      8 H         144.3519  145.6055  163.8827 H       1  UNL1        0.1437
      9 H         143.3945  144.8427  165.0699 H       1  UNL1        0.1437
     10 C         141.9237  140.8496  160.0932 C.ar    1  UNL1        0.0015
     11 C         141.8394  141.2263  158.6437 C.ar    1  UNL1        0.0002
     12 C         141.3890  140.2156  157.6310 C.ar    1  UNL1        0.0045
     13 C         141.0229  138.8281  158.0678 C.ar    1  UNL1        0.0536
     14 C         141.1073  138.4513  159.5172 C.ar    1  UNL1        0.0045
     15 C         141.5577  139.4620  160.5299 C.ar    1  UNL1        0.0002
     16 C         140.5725  137.8174  157.0551 C.2     1  UNL1        0.2491
     17 O         139.1082  137.5836  156.8288 O.2     1  UNL1       -0.2699
     18 N         141.5863  137.0405  156.2687 N.am    1  UNL1       -0.2732
     19 C         143.0507  137.2743  156.4949 C.3     1  UNL1        0.1108
     20 C         144.0645  136.4973  155.7085 C.3     1  UNL1        0.0904
     21 N         143.6141  135.4866  154.6958 N.3     1  UNL1       -0.2946
     22 C         142.1498  135.2528  154.4695 C.3     1  UNL1        0.0904
     23 C         141.1359  136.0297  155.2560 C.3     1  UNL1        0.1108
     24 H         144.0156  134.5914  154.9746 H       1  UNL1        0.1233
     25 C         141.8163  142.7195  164.9400 C.ar    1  UNL1        0.0218
     26 C         140.4715  143.2861  165.2873 C.ar    1  UNL1        0.0031
     27 C         139.9673  143.2103  166.6979 C.ar    1  UNL1        0.0231
     28 C         140.8079  142.5680  167.7614 C.ar    1  UNL1        0.1526
     29 N         142.1527  142.0015  167.4141 N.ar    1  UNL1       -0.2399
     30 C         142.6569  142.0773  166.0034 C.ar    1  UNL1        0.0988
     31 C         140.3037  142.4923  169.1721 C.3     1  UNL1        0.4348
     32 F         139.7995  142.4166  170.5827 F       1  UNL1       -0.1644
     33 F         139.8900  141.0681  168.9477 F       1  UNL1       -0.1644
     34 F         140.7174  143.9165  169.3964 F       1  UNL1       -0.1644
@<TRIPOS>BOND
     1     1     2    1
     2     2     3   ar
     3     3     4   ar
     4     4     5   ar
     5     5    10    1
     6    10    11   ar
     7    11    12   ar
     8    12    13   ar
     9    13    16    1
    10    16    17    2
    11    16    18   am
    12    18    19    1
    13    19    20    1
    14    20    21    1
    15    21    22    1
    16    22    23    1
    17    13    14   ar
    18    14    15   ar
    19     5     6   ar
    20     6     7   ar
    21     7    25    1
    22    25    26   ar
    23    26    27   ar
    24    27    28   ar
    25    28    31    1
    26    31    32    1
    27    31    33    1
    28    31    34    1
    29    28    29   ar
    30    29    30   ar
    31     7     2   ar
    32    30    25   ar
    33    15    10   ar
    34    23    18    1
    35     1     8    1
    36     1     9    1
    37    21    24    1
@<TRIPOS>MOLECULE
*****
 34 37 0 0 0
SMALL
GASTEIGER

@<TRIPOS>ATOM
      1 N         143.7598  139.8440  157.9786 N.pl3   1  UNL1       -0.3426
      2 C         143.5770  139.8374  159.4674 C.ar    1  UNL1        0.1254
      3 N         144.0787  138.6803  160.2794 N.ar    1  UNL1       -0.2296
      4 C         143.8959  138.6737  161.7682 C.ar    1  UNL1        0.1002
      5 C         143.2114  139.8240  162.4450 C.ar    1  UNL1        0.0193
      6 C         142.7097  140.9811  161.6329 C.ar    1  UNL1        0.0044
      7 C         142.8925  140.9877  160.1441 C.ar    1  UNL1        0.0327
      8 H         144.2091  139.0890  157.5344 H       1  UNL1        0.1437
      9 H         143.4305  140.6035  157.4456 H       1  UNL1        0.1437
     10 C         143.0286  139.8173  163.9338 C.ar    1  UNL1        0.0015
     11 C         142.2630  138.7071  164.5905 C.ar    1  UNL1        0.0002
     12 C         142.0802  138.7005  166.0793 C.ar    1  UNL1        0.0045
     13 C         142.6630  139.8040  166.9114 C.ar    1  UNL1        0.0536
     14 C         143.4286  140.9142  166.2547 C.ar    1  UNL1        0.0045
     15 C         143.6114  140.9209  164.7659 C.ar    1  UNL1        0.0002
     16 C         142.4802  139.7973  168.4002 C.2     1  UNL1        0.2491
     17 O         143.0378  138.6712  169.2193 O.2     1  UNL1       -0.2699
     18 N         141.7398  140.9168  169.0700 N.am    1  UNL1       -0.2732
     19 C         141.1821  142.0430  168.2509 C.3     1  UNL1        0.1108
     20 C         140.4417  143.1624  168.9206 C.3     1  UNL1        0.0904
     21 N         140.2589  143.1557  170.4094 N.3     1  UNL1       -0.2946
     22 C         140.8165  142.0296  171.2285 C.3     1  UNL1        0.0904
     23 C         141.5570  140.9101  170.5588 C.3     1  UNL1        0.1108
     24 H         139.2540  143.1764  170.5828 H       1  UNL1        0.1233
     25 C         142.3907  142.1449  159.3321 C.ar    1  UNL1        0.0218
     26 C         140.9751  142.1553  158.8363 C.ar    1  UNL1        0.0031
     27 C         140.4733  143.3124  158.0243 C.ar    1  UNL1        0.0231
     28 C         141.3872  144.4591  157.7080 C.ar    1  UNL1        0.1526
     29 N         142.8029  144.4486  158.2038 N.ar    1  UNL1       -0.2399
     30 C         143.3046  143.2915  159.0158 C.ar    1  UNL1        0.0988
     31 C         140.8854  145.6161  156.8960 C.3     1  UNL1        0.4348
     32 F         140.3837  146.7731  156.0840 F       1  UNL1       -0.1644
     33 F         139.5770  144.9098  156.6981 F       1  UNL1       -0.1644
     34 F         142.1938  146.3224  157.0938 F       1  UNL1       -0.1644
@<TRIPOS>BOND
     1     1     2    1
     2     2     3   ar
     3     3     4   ar
     4     4     5   ar
     5     5    10    1
     6    10    11   ar
     7    11    12   ar
     8    12    13   ar
     9    13    16    1
    10    16    17    2
    11    16    18   am
    12    18    19    1
    13    19    20    1
    14    20    21    1
    15    21    22    1
    16    22    23    1
    17    13    14   ar
    18    14    15   ar
    19     5     6   ar
    20     6     7   ar
    21     7    25    1
    22    25    26   ar
    23    26    27   ar
    24    27    28   ar
    25    28    31    1
    26    31    32    1
    27    31    33    1
    28    31    34    1
    29    28    29   ar
    30    29    30   ar
    31     7     2   ar
    32    30    25   ar
    33    15    10   ar
    34    23    18    1
    35     1     8    1
    36     1     9    1
    37    21    24    1
@<TRIPOS>MOLECULE
*****
 34 37 0 0 0
SMALL
GASTEIGER

@<TRIPOS>ATOM
      1 N         139.2478  139.8747  157.6091 N.pl3   1  UNL1       -0.3426
      2 C         139.2543  139.8680  159.1091 C.ar    1  UNL1        0.1254
      3 N         137.9905  139.5789  159.8633 N.ar    1  UNL1       -0.2296
      4 C         137.9970  139.5722  161.3633 C.ar    1  UNL1        0.1002
      5 C         139.2675  139.8548  162.1090 C.ar    1  UNL1        0.0193
      6 C         140.5313  140.1439  161.3548 C.ar    1  UNL1        0.0044
      7 C         140.5248  140.1506  159.8548 C.ar    1  UNL1        0.0327
      8 H         138.4139  139.6892  157.1197 H       1  UNL1        0.1437
      9 H         140.0773  140.0645  157.1141 H       1  UNL1        0.1437
     10 C         139.2740  139.8481  163.6090 C.ar    1  UNL1        0.0015
     11 C         139.2324  138.5466  164.3534 C.ar    1  UNL1        0.0002
     12 C         139.2389  138.5400  165.8534 C.ar    1  UNL1        0.0045
     13 C         139.2871  139.8348  166.6089 C.ar    1  UNL1        0.0536
     14 C         139.3288  141.1364  165.8645 C.ar    1  UNL1        0.0045
     15 C         139.3222  141.1430  164.3645 C.ar    1  UNL1        0.0002
     16 C         139.2937  139.8282  168.1089 C.2     1  UNL1        0.2491
     17 O         138.0852  139.3569  168.8621 O.2     1  UNL1       -0.2699
     18 N         140.5088  140.2928  168.8557 N.am    1  UNL1       -0.2732
     19 C         141.7174  140.7642  168.1024 C.3     1  UNL1        0.1108
     20 C         142.9324  141.2288  168.8492 C.3     1  UNL1        0.0904
     21 N         142.9390  141.2222  170.3492 N.3     1  UNL1       -0.2946
     22 C         141.7305  140.7509  171.1024 C.3     1  UNL1        0.0904
     23 C         140.5153  140.2862  170.3556 C.3     1  UNL1        0.1108
     24 H         143.1160  142.1815  170.6471 H       1  UNL1        0.1233
     25 C         141.7887  140.4398  159.1005 C.ar    1  UNL1        0.0218
     26 C         142.1903  141.8587  158.8260 C.ar    1  UNL1        0.0031
     27 C         143.4542  142.1480  158.0718 C.ar    1  UNL1        0.0231
     28 C         144.3166  141.0182  157.5920 C.ar    1  UNL1        0.1526
     29 N         143.9150  139.5993  157.8665 N.ar    1  UNL1       -0.2399
     30 C         142.6510  139.3101  158.6208 C.ar    1  UNL1        0.0988
     31 C         145.5805  141.3075  156.8378 C.3     1  UNL1        0.4348
     32 F         146.8443  141.5967  156.0836 F       1  UNL1       -0.1644
     33 F         145.7210  142.6079  157.5720 F       1  UNL1       -0.1644
     34 F         145.4400  140.0070  156.1037 F       1  UNL1       -0.1644
@<TRIPOS>BOND
     1     1     2    1
     2     2     3   ar
     3     3     4   ar
     4     4     5   ar
     5     5    10    1
     6    10    11   ar
     7    11    12   ar
     8    12    13   ar
     9    13    16    1
    10    16    17    2
    11    16    18   am
    12    18    19    1
    13    19    20    1
    14    20    21    1
    15    21    22    1
    16    22    23    1
    17    13    14   ar
    18    14    15   ar
    19     5     6   ar
    20     6     7   ar
    21     7    25    1
    22    25    26   ar
    23    26    27   ar
    24    27    28   ar
    25    28    31    1
    26    31    32    1
    27    31    33    1
    28    31    34    1
    29    28    29   ar
    30    29    30   ar
    31     7     2   ar
    32    30    25   ar
    33    15    10   ar
    34    23    18    1
    35     1     8    1
    36     1     9    1
    37    21    24    1
