@<TRIPOS>MOLECULE
*****
 30 33 0 0 0
SMALL
GASTEIGER

@<TRIPOS>ATOM
      1 C         141.3277  140.9218  162.2720 C.3     1  UNL1        0.1467
      2 C         142.7068  137.5050  157.8827 C.3     1  UNL1        0.0896
      3 N         142.4590  138.2243  159.1755 N.3     1  UNL1       -0.2715
      4 C         142.9357  137.6302  160.4676 C.3     1  UNL1        0.0725
      5 C         142.6879  138.3495  161.7604 C.3     1  UNL1        0.0238
      6 C         141.9634  139.6629  161.7610 C.3     1  UNL1        0.0489
      7 C         141.4866  140.2569  160.4689 C.3     1  UNL1        0.0238
      8 C         141.7344  139.5377  159.1761 C.3     1  UNL1        0.0725
      9 C         142.2194  139.5060  163.2307 C.ar    1  UNL1       -0.0203
     10 C         141.8045  138.2479  163.9342 C.ar    1  UNL1       -0.0033
     11 C         142.0604  138.0909  165.4038 C.ar    1  UNL1        0.0111
     12 C         142.7314  139.1921  166.1699 C.ar    1  UNL1        0.0577
     13 CL        142.9875  139.0352  167.6396 Cl      1  UNL1       -0.0822
     14 C         143.1464  140.4503  165.4665 C.ar    1  UNL1        0.0111
     15 C         142.8904  140.6072  163.9968 C.ar    1  UNL1       -0.0033
     16 O         139.8960  141.2258  161.9437 O.3     1  UNL1       -0.3470
     17 C         138.9630  141.6950  163.0204 C.3     1  UNL1        0.1874
     18 C         139.0779  141.1370  164.4080 C.ar    1  UNL1        0.0883
     19 C         138.4897  139.7947  164.7277 C.ar    1  UNL1        0.0211
     20 C         138.6046  139.2367  166.1153 C.ar    1  UNL1        0.0738
     21 C         139.3078  140.0210  167.1832 C.ar    1  UNL1        0.0186
     22 C         139.8961  141.3633  166.8635 C.ar    1  UNL1        0.0583
     23 N         139.7811  141.9213  165.4759 N.ar    1  UNL1       -0.2515
     24 C         138.0164  137.8944  166.4351 C.3     1  UNL1        0.4187
     25 F         137.4282  136.5521  166.7549 F       1  UNL1       -0.1659
     26 F         137.2294  138.5064  167.5559 F       1  UNL1       -0.1659
     27 F         138.8034  137.2825  165.3143 F       1  UNL1       -0.1659
     28 C         140.5992  142.1476  167.9314 C.3     1  UNL1        0.0403
     29 C         140.5763  143.2073  168.9929 C.3     1  UNL1        0.0063
     30 C         141.8398  142.4465  168.7198 C.3     1  UNL1        0.0063
@<TRIPOS>BOND
     1     2     3    1
     2     3     4    1
     3     4     5    1
     4     5     6    1
     5     6     1    1
     6     1    16    1
     7    16    17    1
     8    17    18    1
     9    18    19   ar
    10    19    20   ar
    11    20    24    1
    12    24    25    1
    13    24    26    1
    14    24    27    1
    15    20    21   ar
    16    21    22   ar
    17    22    28    1
    18    28    29    1
    19    29    30    1
    20    22    23   ar
    21     6     9    1
    22     9    10   ar
    23    10    11   ar
    24    11    12   ar
    25    12    13    1
    26    12    14   ar
    27    14    15   ar
    28     6     7    1
    29     7     8    1
    30     8     3    1
    31    23    18   ar
    32    15     9   ar
    33    30    28    1
@<TRIPOS>MOLECULE
*****
 30 33 0 0 0
SMALL
GASTEIGER

@<TRIPOS>ATOM
      1 C         143.1686  139.3597  165.4250 C.3     1  UNL1        0.1467
      2 C         144.3972  144.1937  162.6028 C.3     1  UNL1        0.0896
      3 N         143.9535  143.0797  163.5039 N.3     1  UNL1       -0.2715
      4 C         143.1354  143.3826  164.7241 C.3     1  UNL1        0.0725
      5 C         142.6917  142.2685  165.6252 C.3     1  UNL1        0.0238
      6 C         143.0660  140.8515  165.3060 C.3     1  UNL1        0.0489
      7 C         143.8841  140.5486  164.0858 C.3     1  UNL1        0.0238
      8 C         144.3278  141.6626  163.1847 C.3     1  UNL1        0.0725
      9 C         142.2836  140.6364  166.5676 C.ar    1  UNL1       -0.0203
     10 C         141.0015  141.3820  166.7913 C.ar    1  UNL1       -0.0033
     11 C         140.2190  141.1669  168.0528 C.ar    1  UNL1        0.0111
     12 C         140.7187  140.2061  169.0906 C.ar    1  UNL1        0.0577
     13 CL        139.9363  139.9910  170.3522 Cl      1  UNL1       -0.0822
     14 C         142.0008  139.4604  168.8670 C.ar    1  UNL1        0.0111
     15 C         142.7833  139.6755  167.6054 C.ar    1  UNL1       -0.0033
     16 O         143.1159  138.5038  164.1943 O.3     1  UNL1       -0.3470
     17 C         141.7932  138.0439  163.6567 C.3     1  UNL1        0.1874
     18 C         140.5231  138.6648  164.1579 C.ar    1  UNL1        0.0883
     19 C         139.7312  137.9863  165.2362 C.ar    1  UNL1        0.0211
     20 C         138.4611  138.6073  165.7373 C.ar    1  UNL1        0.0738
     21 C         137.9828  139.9067  165.1604 C.ar    1  UNL1        0.0186
     22 C         138.7748  140.5852  164.0822 C.ar    1  UNL1        0.0583
     23 N         140.0449  139.9642  163.5809 N.ar    1  UNL1       -0.2515
     24 C         137.6691  137.9288  166.8156 C.3     1  UNL1        0.4187
     25 F         136.8771  137.2505  167.8938 F       1  UNL1       -0.1659
     26 F         137.5156  139.2401  167.5278 F       1  UNL1       -0.1659
     27 F         137.8226  136.6177  166.1033 F       1  UNL1       -0.1659
     28 C         138.2966  141.8845  163.5052 C.3     1  UNL1        0.0403
     29 C         137.9754  142.7366  162.3132 C.3     1  UNL1        0.0063
     30 C         137.7894  143.2830  163.6977 C.3     1  UNL1        0.0063
@<TRIPOS>BOND
     1     2     3    1
     2     3     4    1
     3     4     5    1
     4     5     6    1
     5     6     1    1
     6     1    16    1
     7    16    17    1
     8    17    18    1
     9    18    19   ar
    10    19    20   ar
    11    20    24    1
    12    24    25    1
    13    24    26    1
    14    24    27    1
    15    20    21   ar
    16    21    22   ar
    17    22    28    1
    18    28    29    1
    19    29    30    1
    20    22    23   ar
    21     6     9    1
    22     9    10   ar
    23    10    11   ar
    24    11    12   ar
    25    12    13    1
    26    12    14   ar
    27    14    15   ar
    28     6     7    1
    29     7     8    1
    30     8     3    1
    31    23    18   ar
    32    15     9   ar
    33    30    28    1
@<TRIPOS>MOLECULE
*****
 30 33 0 0 0
SMALL
GASTEIGER

@<TRIPOS>ATOM
      1 C         140.4043  137.8654  162.3757 C.3     1  UNL1        0.1467
      2 C         137.9293  140.3707  157.8547 C.3     1  UNL1        0.0896
      3 N         138.3900  139.8208  159.1720 N.3     1  UNL1       -0.2715
      4 C         137.6236  140.1308  160.4235 C.3     1  UNL1        0.0725
      5 C         138.0843  139.5809  161.7408 C.3     1  UNL1        0.0238
      6 C         139.3115  138.7209  161.8066 C.3     1  UNL1        0.0489
      7 C         140.0780  138.4108  160.5551 C.3     1  UNL1        0.0238
      8 C         139.6172  138.9608  159.2378 C.3     1  UNL1        0.0725
      9 C         138.9245  138.7338  163.2558 C.ar    1  UNL1       -0.0203
     10 C         138.4874  140.0139  163.9040 C.ar    1  UNL1       -0.0033
     11 C         138.1004  140.0270  165.3531 C.ar    1  UNL1        0.0111
     12 C         138.1506  138.7597  166.1541 C.ar    1  UNL1        0.0577
     13 CL        137.7637  138.7727  167.6033 Cl      1  UNL1       -0.0822
     14 C         138.5877  137.4795  165.5060 C.ar    1  UNL1        0.0111
     15 C         138.9747  137.4666  164.0568 C.ar    1  UNL1       -0.0033
     16 O         141.8404  138.2411  162.1597 O.3     1  UNL1       -0.3470
     17 C         142.7036  138.6090  163.3300 C.3     1  UNL1        0.1874
     18 C         142.2291  139.6313  164.3198 C.ar    1  UNL1        0.0883
     19 C         142.0077  139.2426  165.7516 C.ar    1  UNL1        0.0211
     20 C         141.5333  140.2649  166.7414 C.ar    1  UNL1        0.0738
     21 C         141.2802  141.6758  166.2995 C.ar    1  UNL1        0.0186
     22 C         141.5015  142.0645  164.8677 C.ar    1  UNL1        0.0583
     23 N         141.9760  141.0422  163.8779 N.ar    1  UNL1       -0.2515
     24 C         141.3119  139.8763  168.1733 C.3     1  UNL1        0.4187
     25 F         141.0905  139.4878  169.6050 F       1  UNL1       -0.1659
     26 F         140.0905  140.7459  168.2203 F       1  UNL1       -0.1659
     27 F         142.5333  139.0069  168.1261 F       1  UNL1       -0.1659
     28 C         141.2484  143.4753  164.4259 C.3     1  UNL1        0.0403
     29 C         140.2987  144.6126  164.1914 C.3     1  UNL1        0.0063
     30 C         141.7594  144.7819  163.8950 C.3     1  UNL1        0.0063
@<TRIPOS>BOND
     1     2     3    1
     2     3     4    1
     3     4     5    1
     4     5     6    1
     5     6     1    1
     6     1    16    1
     7    16    17    1
     8    17    18    1
     9    18    19   ar
    10    19    20   ar
    11    20    24    1
    12    24    25    1
    13    24    26    1
    14    24    27    1
    15    20    21   ar
    16    21    22   ar
    17    22    28    1
    18    28    29    1
    19    29    30    1
    20    22    23   ar
    21     6     9    1
    22     9    10   ar
    23    10    11   ar
    24    11    12   ar
    25    12    13    1
    26    12    14   ar
    27    14    15   ar
    28     6     7    1
    29     7     8    1
    30     8     3    1
    31    23    18   ar
    32    15     9   ar
    33    30    28    1
@<TRIPOS>MOLECULE
*****
 30 33 0 0 0
SMALL
GASTEIGER

@<TRIPOS>ATOM
      1 C         139.8358  143.3392  165.7839 C.3     1  UNL1        0.1467
      2 C         144.5504  143.9511  162.5838 C.3     1  UNL1        0.0896
      3 N         143.4600  143.6405  163.5660 N.3     1  UNL1       -0.2715
      4 C         143.7342  142.7339  164.7290 C.3     1  UNL1        0.0725
      5 C         142.6438  142.4233  165.7112 C.3     1  UNL1        0.0238
      6 C         141.2793  143.0194  165.5303 C.3     1  UNL1        0.0489
      7 C         141.0051  143.9260  164.3672 C.3     1  UNL1        0.0238
      8 C         142.0955  144.2366  163.3850 C.3     1  UNL1        0.0725
      9 C         141.0522  142.2238  166.7815 C.ar    1  UNL1       -0.0203
     10 C         141.3651  140.7570  166.8048 C.ar    1  UNL1       -0.0033
     11 C         141.1380  139.9614  168.0559 C.ar    1  UNL1        0.0111
     12 C         140.5979  140.6326  169.2838 C.ar    1  UNL1        0.0577
     13 CL        140.3708  139.8370  170.5350 Cl      1  UNL1       -0.0822
     14 C         140.2849  142.0994  169.2606 C.ar    1  UNL1        0.0111
     15 C         140.5120  142.8950  168.0094 C.ar    1  UNL1       -0.0033
     16 O         138.8940  143.5205  164.6306 O.3     1  UNL1       -0.3470
     17 C         138.1153  142.3502  164.1071 C.3     1  UNL1        0.1874
     18 C         138.6224  140.9551  164.3225 C.ar    1  UNL1        0.0883
     19 C         137.9815  140.0751  165.3546 C.ar    1  UNL1        0.0211
     20 C         138.4887  138.6801  165.5700 C.ar    1  UNL1        0.0738
     21 C         139.6367  138.1648  164.7535 C.ar    1  UNL1        0.0186
     22 C         140.2775  139.0448  163.7214 C.ar    1  UNL1        0.0583
     23 N         139.7704  140.4399  163.5060 N.ar    1  UNL1       -0.2515
     24 C         137.8479  137.8000  166.6020 C.3     1  UNL1        0.4187
     25 F         137.2071  136.9201  167.6340 F       1  UNL1       -0.1659
     26 F         137.5196  139.0082  167.4282 F       1  UNL1       -0.1659
     27 F         138.1763  136.5920  165.7757 F       1  UNL1       -0.1659
     28 C         141.4255  138.5296  162.9049 C.3     1  UNL1        0.0403
     29 C         142.8924  138.2544  162.7546 C.3     1  UNL1        0.0063
     30 C         141.9471  137.9125  161.6412 C.3     1  UNL1        0.0063
@<TRIPOS>BOND
     1     2     3    1
     2     3     4    1
     3     4     5    1
     4     5     6    1
     5     6     1    1
     6     1    16    1
     7    16    17    1
     8    17    18    1
     9    18    19   ar
    10    19    20   ar
    11    20    24    1
    12    24    25    1
    13    24    26    1
    14    24    27    1
    15    20    21   ar
    16    21    22   ar
    17    22    28    1
    18    28    29    1
    19    29    30    1
    20    22    23   ar
    21     6     9    1
    22     9    10   ar
    23    10    11   ar
    24    11    12   ar
    25    12    13    1
    26    12    14   ar
    27    14    15   ar
    28     6     7    1
    29     7     8    1
    30     8     3    1
    31    23    18   ar
    32    15     9   ar
    33    30    28    1
@<TRIPOS>MOLECULE
*****
 30 33 0 0 0
SMALL
GASTEIGER

@<TRIPOS>ATOM
      1 C         142.0562  138.6668  162.8603 C.3     1  UNL1        0.1467
      2 C         140.4146  138.4278  157.3748 C.3     1  UNL1        0.0896
      3 N         140.5963  138.4894  158.8625 N.3     1  UNL1       -0.2715
      4 C         139.3979  138.5109  159.7643 C.3     1  UNL1        0.0725
      5 C         139.5797  138.5725  161.2519 C.3     1  UNL1        0.0238
      6 C         140.9599  138.6126  161.8378 C.3     1  UNL1        0.0489
      7 C         142.1583  138.5912  160.9361 C.3     1  UNL1        0.0238
      8 C         141.9766  138.5296  159.4484 C.3     1  UNL1        0.0725
      9 C         140.1421  138.6529  163.0947 C.ar    1  UNL1       -0.0203
     10 C         140.2906  137.5693  164.1211 C.ar    1  UNL1       -0.0033
     11 C         139.4730  137.6095  165.3780 C.ar    1  UNL1        0.0111
     12 C         138.5067  138.7334  165.6084 C.ar    1  UNL1        0.0577
     13 CL        137.6889  138.7737  166.8653 Cl      1  UNL1       -0.0822
     14 C         138.3581  139.8171  164.5820 C.ar    1  UNL1        0.0111
     15 C         139.1759  139.7769  163.3251 C.ar    1  UNL1       -0.0033
     16 O         143.0815  139.7602  162.8033 O.3     1  UNL1       -0.3470
     17 C         143.4584  140.5007  164.0521 C.3     1  UNL1        0.1874
     18 C         142.3907  140.9882  164.9861 C.ar    1  UNL1        0.0883
     19 C         142.1656  140.2931  166.2961 C.ar    1  UNL1        0.0211
     20 C         141.0978  140.7807  167.2300 C.ar    1  UNL1        0.0738
     21 C         140.2553  141.9633  166.8540 C.ar    1  UNL1        0.0186
     22 C         140.4804  142.6584  165.5440 C.ar    1  UNL1        0.0583
     23 N         141.5481  142.1709  164.6100 N.ar    1  UNL1       -0.2515
     24 C         140.8726  140.0855  168.5401 C.3     1  UNL1        0.4187
     25 F         140.6473  139.3905  169.8501 F       1  UNL1       -0.1659
     26 F         139.5439  140.7688  168.6741 F       1  UNL1       -0.1659
     27 F         142.2013  139.4024  168.4060 F       1  UNL1       -0.1659
     28 C         139.6378  143.8410  165.1680 C.3     1  UNL1        0.0403
     29 C         139.1993  144.8529  164.1511 C.3     1  UNL1        0.0063
     30 C         138.6170  144.8776  165.5333 C.3     1  UNL1        0.0063
@<TRIPOS>BOND
     1     2     3    1
     2     3     4    1
     3     4     5    1
     4     5     6    1
     5     6     1    1
     6     1    16    1
     7    16    17    1
     8    17    18    1
     9    18    19   ar
    10    19    20   ar
    11    20    24    1
    12    24    25    1
    13    24    26    1
    14    24    27    1
    15    20    21   ar
    16    21    22   ar
    17    22    28    1
    18    28    29    1
    19    29    30    1
    20    22    23   ar
    21     6     9    1
    22     9    10   ar
    23    10    11   ar
    24    11    12   ar
    25    12    13    1
    26    12    14   ar
    27    14    15   ar
    28     6     7    1
    29     7     8    1
    30     8     3    1
    31    23    18   ar
    32    15     9   ar
    33    30    28    1
@<TRIPOS>MOLECULE
*****
 30 33 0 0 0
SMALL
GASTEIGER

@<TRIPOS>ATOM
      1 C         144.0138  142.9026  165.4060 C.3     1  UNL1        0.1467
      2 C         143.7582  138.2153  162.1186 C.3     1  UNL1        0.0896
      3 N         143.6345  139.3361  163.1078 N.3     1  UNL1       -0.2715
      4 C         142.6008  139.2684  164.1926 C.3     1  UNL1        0.0725
      5 C         142.4771  140.3892  165.1818 C.3     1  UNL1        0.0238
      6 C         143.3872  141.5777  165.0863 C.3     1  UNL1        0.0489
      7 C         144.4209  141.6455  164.0015 C.3     1  UNL1        0.0238
      8 C         144.5446  140.5247  163.0123 C.3     1  UNL1        0.0725
      9 C         142.5710  141.9701  166.2821 C.ar    1  UNL1       -0.0203
     10 C         143.2387  142.1856  167.6079 C.ar    1  UNL1       -0.0033
     11 C         142.4227  142.5779  168.8037 C.ar    1  UNL1        0.0111
     12 C         140.9389  142.7548  168.6737 C.ar    1  UNL1        0.0577
     13 CL        140.1227  143.1472  169.8696 Cl      1  UNL1       -0.0822
     14 C         140.2711  142.5394  167.3480 C.ar    1  UNL1        0.0111
     15 C         141.0872  142.1470  166.1521 C.ar    1  UNL1       -0.0033
     16 O         144.4184  143.8280  164.2970 O.3     1  UNL1       -0.3470
     17 C         143.6223  145.0709  164.0294 C.3     1  UNL1        0.1874
     18 C         142.2969  144.9773  163.3334 C.ar    1  UNL1        0.0883
     19 C         141.0387  144.8181  164.1344 C.ar    1  UNL1        0.0211
     20 C         139.7133  144.7245  163.4383 C.ar    1  UNL1        0.0738
     21 C         139.6461  144.7901  161.9412 C.ar    1  UNL1        0.0186
     22 C         140.9043  144.9493  161.1402 C.ar    1  UNL1        0.0583
     23 N         142.2297  145.0429  161.8363 N.ar    1  UNL1       -0.2515
     24 C         138.4550  144.5654  164.2392 C.3     1  UNL1        0.4187
     25 F         137.1968  144.4062  165.0401 F       1  UNL1       -0.1659
     26 F         137.7529  144.0253  163.0287 F       1  UNL1       -0.1659
     27 F         139.1573  145.1054  165.4497 F       1  UNL1       -0.1659
     28 C         140.8371  145.0148  159.6432 C.3     1  UNL1        0.0403
     29 C         141.3886  145.5084  158.3384 C.3     1  UNL1        0.0063
     30 C         140.1692  144.6350  158.3549 C.3     1  UNL1        0.0063
@<TRIPOS>BOND
     1     2     3    1
     2     3     4    1
     3     4     5    1
     4     5     6    1
     5     6     1    1
     6     1    16    1
     7    16    17    1
     8    17    18    1
     9    18    19   ar
    10    19    20   ar
    11    20    24    1
    12    24    25    1
    13    24    26    1
    14    24    27    1
    15    20    21   ar
    16    21    22   ar
    17    22    28    1
    18    28    29    1
    19    29    30    1
    20    22    23   ar
    21     6     9    1
    22     9    10   ar
    23    10    11   ar
    24    11    12   ar
    25    12    13    1
    26    12    14   ar
    27    14    15   ar
    28     6     7    1
    29     7     8    1
    30     8     3    1
    31    23    18   ar
    32    15     9   ar
    33    30    28    1
@<TRIPOS>MOLECULE
*****
 30 33 0 0 0
SMALL
GASTEIGER

@<TRIPOS>ATOM
      1 C         142.4006  139.4377  165.8629 C.3     1  UNL1        0.1467
      2 C         140.8725  140.9091  171.1865 C.3     1  UNL1        0.0896
      3 N         141.0237  140.5024  169.7507 N.3     1  UNL1       -0.2715
      4 C         139.8078  140.2179  168.9197 C.3     1  UNL1        0.0725
      5 C         139.9590  139.8112  167.4839 C.3     1  UNL1        0.0238
      6 C         141.3262  139.6890  166.8789 C.3     1  UNL1        0.0489
      7 C         142.5421  139.9736  167.7099 C.3     1  UNL1        0.0238
      8 C         142.3909  140.3803  169.1458 C.3     1  UNL1        0.0725
      9 C         140.4833  139.3172  165.6951 C.ar    1  UNL1       -0.0203
     10 C         140.9551  138.2604  164.7408 C.ar    1  UNL1       -0.0033
     11 C         140.1124  137.8886  163.5570 C.ar    1  UNL1        0.0111
     12 C         138.7978  138.5735  163.3275 C.ar    1  UNL1        0.0577
     13 CL        137.9550  138.2017  162.1436 Cl      1  UNL1       -0.0822
     14 C         138.3260  139.6303  164.2817 C.ar    1  UNL1        0.0111
     15 C         139.1688  140.0022  165.4655 C.ar    1  UNL1       -0.0033
     16 O         143.4781  140.4578  165.6428 O.3     1  UNL1       -0.3470
     17 C         143.4030  141.3863  164.4670 C.3     1  UNL1        0.1874
     18 C         142.0736  141.9042  164.0040 C.ar    1  UNL1        0.0883
     19 C         141.3307  142.9100  164.8326 C.ar    1  UNL1        0.0211
     20 C         140.0013  143.4278  164.3696 C.ar    1  UNL1        0.0738
     21 C         139.4147  142.9400  163.0781 C.ar    1  UNL1        0.0186
     22 C         140.1576  141.9341  162.2496 C.ar    1  UNL1        0.0583
     23 N         141.4870  141.4162  162.7125 N.ar    1  UNL1       -0.2515
     24 C         139.2583  144.4337  165.1981 C.3     1  UNL1        0.4187
     25 F         138.5154  145.4395  166.0266 F       1  UNL1       -0.1659
     26 F         139.6558  143.7003  166.4448 F       1  UNL1       -0.1659
     27 F         138.8609  145.1670  163.9513 F       1  UNL1       -0.1659
     28 C         139.5710  141.4462  160.9582 C.3     1  UNL1        0.0403
     29 C         139.5916  140.4928  159.8002 C.3     1  UNL1        0.0063
     30 C         138.5347  141.5543  159.8791 C.3     1  UNL1        0.0063
@<TRIPOS>BOND
     1     2     3    1
     2     3     4    1
     3     4     5    1
     4     5     6    1
     5     6     1    1
     6     1    16    1
     7    16    17    1
     8    17    18    1
     9    18    19   ar
    10    19    20   ar
    11    20    24    1
    12    24    25    1
    13    24    26    1
    14    24    27    1
    15    20    21   ar
    16    21    22   ar
    17    22    28    1
    18    28    29    1
    19    29    30    1
    20    22    23   ar
    21     6     9    1
    22     9    10   ar
    23    10    11   ar
    24    11    12   ar
    25    12    13    1
    26    12    14   ar
    27    14    15   ar
    28     6     7    1
    29     7     8    1
    30     8     3    1
    31    23    18   ar
    32    15     9   ar
    33    30    28    1
@<TRIPOS>MOLECULE
*****
 30 33 0 0 0
SMALL
GASTEIGER

@<TRIPOS>ATOM
      1 C         141.6690  142.4523  165.9035 C.3     1  UNL1        0.1467
      2 C         141.5152  141.0339  171.4539 C.3     1  UNL1        0.0896
      3 N         141.6670  141.1801  169.9688 N.3     1  UNL1       -0.2715
      4 C         142.3056  140.0838  169.1686 C.3     1  UNL1        0.0725
      5 C         142.4573  140.2299  167.6835 C.3     1  UNL1        0.0238
      6 C         141.9705  141.4724  166.9985 C.3     1  UNL1        0.0489
      7 C         141.3319  142.5687  167.7987 C.3     1  UNL1        0.0238
      8 C         141.1801  142.4225  169.2838 C.3     1  UNL1        0.0725
      9 C         142.5044  140.7163  165.8181 C.ar    1  UNL1       -0.0203
     10 C         143.3872  141.4075  164.8217 C.ar    1  UNL1       -0.0033
     11 C         143.9212  140.6516  163.6413 C.ar    1  UNL1        0.0111
     12 C         143.5722  139.2044  163.4573 C.ar    1  UNL1        0.0577
     13 CL        144.1062  138.4483  162.2769 Cl      1  UNL1       -0.0822
     14 C         142.6894  138.5131  164.4537 C.ar    1  UNL1        0.0111
     15 C         142.1555  139.2691  165.6341 C.ar    1  UNL1       -0.0033
     16 O         140.3550  143.1754  165.8850 O.3     1  UNL1       -0.3470
     17 C         139.2518  142.7034  164.9849 C.3     1  UNL1        0.1874
     18 C         139.1354  141.2481  164.6409 C.ar    1  UNL1        0.0883
     19 C         138.5801  140.2821  165.6452 C.ar    1  UNL1        0.0211
     20 C         138.4638  138.8267  165.3012 C.ar    1  UNL1        0.0738
     21 C         138.9027  138.3373  163.9529 C.ar    1  UNL1        0.0186
     22 C         139.4580  139.3033  162.9486 C.ar    1  UNL1        0.0583
     23 N         139.5744  140.7587  163.2926 N.ar    1  UNL1       -0.2515
     24 C         137.9085  137.8607  166.3054 C.3     1  UNL1        0.4187
     25 F         137.3533  136.8946  167.3096 F       1  UNL1       -0.1659
     26 F         138.4578  136.7154  165.5074 F       1  UNL1       -0.1659
     27 F         137.3593  139.0059  167.1034 F       1  UNL1       -0.1659
     28 C         139.8969  138.8139  161.6004 C.3     1  UNL1        0.0403
     29 C         140.9902  138.3890  160.6653 C.3     1  UNL1        0.0063
     30 C         139.5640  138.3910  160.2002 C.3     1  UNL1        0.0063
@<TRIPOS>BOND
     1     2     3    1
     2     3     4    1
     3     4     5    1
     4     5     6    1
     5     6     1    1
     6     1    16    1
     7    16    17    1
     8    17    18    1
     9    18    19   ar
    10    19    20   ar
    11    20    24    1
    12    24    25    1
    13    24    26    1
    14    24    27    1
    15    20    21   ar
    16    21    22   ar
    17    22    28    1
    18    28    29    1
    19    29    30    1
    20    22    23   ar
    21     6     9    1
    22     9    10   ar
    23    10    11   ar
    24    11    12   ar
    25    12    13    1
    26    12    14   ar
    27    14    15   ar
    28     6     7    1
    29     7     8    1
    30     8     3    1
    31    23    18   ar
    32    15     9   ar
    33    30    28    1
@<TRIPOS>MOLECULE
*****
 30 33 0 0 0
SMALL
GASTEIGER

@<TRIPOS>ATOM
      1 C         144.8699  142.3316  162.4412 C.3     1  UNL1        0.1467
      2 C         143.4086  141.1706  157.0228 C.3     1  UNL1        0.0896
      3 N         143.6873  141.2497  158.4945 N.3     1  UNL1       -0.2715
      4 C         143.2723  140.1265  159.3979 C.3     1  UNL1        0.0725
      5 C         143.5511  140.2056  160.8697 C.3     1  UNL1        0.0238
      6 C         144.2448  141.4079  161.4380 C.3     1  UNL1        0.0489
      7 C         144.6598  142.5311  160.5347 C.3     1  UNL1        0.0238
      8 C         144.3811  142.4520  159.0629 C.3     1  UNL1        0.0725
      9 C         144.0469  140.6054  162.6898 C.ar    1  UNL1       -0.0203
     10 C         142.6709  140.1558  163.0827 C.ar    1  UNL1       -0.0033
     11 C         142.4729  139.3534  164.3345 C.ar    1  UNL1        0.0111
     12 C         143.6510  139.0006  165.1933 C.ar    1  UNL1        0.0577
     13 CL        143.4531  138.1981  166.4451 Cl      1  UNL1       -0.0822
     14 C         145.0271  139.4502  164.8004 C.ar    1  UNL1        0.0111
     15 C         145.2250  140.2526  163.5486 C.ar    1  UNL1       -0.0033
     16 O         144.4353  143.7655  162.5131 O.3     1  UNL1       -0.3470
     17 C         144.0304  144.3613  163.8288 C.3     1  UNL1        0.1874
     18 C         142.9889  143.6845  164.6698 C.ar    1  UNL1        0.0883
     19 C         143.3974  142.8964  165.8791 C.ar    1  UNL1        0.0211
     20 C         142.3560  142.2196  166.7200 C.ar    1  UNL1        0.0738
     21 C         140.9061  142.3308  166.3519 C.ar    1  UNL1        0.0186
     22 C         140.4977  143.1188  165.1426 C.ar    1  UNL1        0.0583
     23 N         141.5391  143.7957  164.3016 N.ar    1  UNL1       -0.2515
     24 C         142.7643  141.4315  167.9293 C.3     1  UNL1        0.4187
     25 F         143.1727  140.6436  169.1385 F       1  UNL1       -0.1659
     26 F         143.8276  142.4457  168.2310 F       1  UNL1       -0.1659
     27 F         141.7011  140.4175  167.6275 F       1  UNL1       -0.1659
     28 C         139.0478  143.2300  164.7745 C.3     1  UNL1        0.0403
     29 C         137.8364  144.0733  164.5072 C.3     1  UNL1        0.0063
     30 C         137.7480  142.5794  164.4041 C.3     1  UNL1        0.0063
@<TRIPOS>BOND
     1     2     3    1
     2     3     4    1
     3     4     5    1
     4     5     6    1
     5     6     1    1
     6     1    16    1
     7    16    17    1
     8    17    18    1
     9    18    19   ar
    10    19    20   ar
    11    20    24    1
    12    24    25    1
    13    24    26    1
    14    24    27    1
    15    20    21   ar
    16    21    22   ar
    17    22    28    1
    18    28    29    1
    19    29    30    1
    20    22    23   ar
    21     6     9    1
    22     9    10   ar
    23    10    11   ar
    24    11    12   ar
    25    12    13    1
    26    12    14   ar
    27    14    15   ar
    28     6     7    1
    29     7     8    1
    30     8     3    1
    31    23    18   ar
    32    15     9   ar
    33    30    28    1
