@<TRIPOS>MOLECULE
*****
 31 33 0 0 0
SMALL
GASTEIGER

@<TRIPOS>ATOM
      1 C         142.5693  139.7034  167.3401 C.3     1  UNL1        0.1684
      2 N         141.8244  140.8172  166.6658 N.am    1  UNL1       -0.2935
      3 C         140.3324  140.7463  166.5285 C.2     1  UNL1        0.2240
      4 O         139.5852  139.5616  167.0655 O.2     1  UNL1       -0.2750
      5 H         142.3147  141.5947  166.3133 H       1  UNL1        0.1503
      6 C         139.5874  141.8601  165.8542 C.3     1  UNL1        0.0906
      7 C         140.0214  143.2819  166.0549 C.3     1  UNL1        0.0104
      8 C         139.2765  144.3956  165.3806 C.3     1  UNL1        0.0006
      9 C         138.0977  144.0876  164.5057 C.3     1  UNL1        0.0014
     10 C         137.6638  142.6658  164.3050 C.3     1  UNL1        0.0160
     11 C         138.4087  141.5521  164.9792 C.3     1  UNL1        0.0594
     12 N         137.9748  140.1303  164.7785 N.3     1  UNL1       -0.3218
     13 H         137.1644  140.1063  164.1596 H       1  UNL1        0.1188
     14 H         137.7272  139.7201  165.6790 H       1  UNL1        0.1188
     15 C         142.7509  139.7162  168.8290 C.1     1  UNL1        0.0927
     16 N         142.9324  139.7290  170.3179 N.1     1  UNL1       -0.1942
     17 C         143.1326  138.5769  166.5255 C.3     1  UNL1        0.0616
     18 C         142.2044  138.2943  162.1313 C.ar    1  UNL1       -0.0000
     19 C         143.4411  139.0071  162.5923 C.ar    1  UNL1       -0.0003
     20 C         143.7505  139.1013  164.0570 C.ar    1  UNL1       -0.0042
     21 C         142.8232  138.4827  165.0607 C.ar    1  UNL1       -0.0194
     22 C         141.5866  137.7698  164.5997 C.ar    1  UNL1       -0.0042
     23 C         141.2772  137.6756  163.1350 C.ar    1  UNL1       -0.0003
     24 C         141.2762  138.0116  157.7372 C.ar    1  UNL1        0.0684
     25 C         142.6321  137.6184  158.2441 C.ar    1  UNL1        0.0103
     26 C         142.9415  137.7126  159.7088 C.ar    1  UNL1        0.0007
     27 C         141.8950  138.2001  160.6666 C.ar    1  UNL1        0.0000
     28 C         140.5392  138.5932  160.1596 C.ar    1  UNL1        0.0007
     29 C         140.2298  138.4990  158.6949 C.ar    1  UNL1        0.0103
     30 N         140.6574  137.8232  154.8077 N.1     1  UNL1       -0.1908
     31 C         140.9668  137.9174  156.2724 C.1     1  UNL1        0.1004
@<TRIPOS>BOND
     1    30    31    3
     2    31    24    1
     3    24    25   ar
     4    25    26   ar
     5    26    27   ar
     6    27    18    1
     7    18    19   ar
     8    19    20   ar
     9    20    21   ar
    10    21    17    1
    11     1    17    1
    12     1    15    1
    13    15    16    3
    14     1     2    1
    15     2     3   am
    16     3     4    2
    17     6     3    1
    18     6     7    1
    19     7     8    1
    20     8     9    1
    21     9    10    1
    22    10    11    1
    23    11    12    1
    24    21    22   ar
    25    22    23   ar
    26    27    28   ar
    27    28    29   ar
    28    29    24   ar
    29    23    18   ar
    30    11     6    1
    31     2     5    1
    32    12    13    1
    33    12    14    1
@<TRIPOS>MOLECULE
*****
 31 33 0 0 0
SMALL
GASTEIGER

@<TRIPOS>ATOM
      1 C         138.1090  138.5072  165.8230 C.3     1  UNL1        0.1684
      2 N         137.9526  139.8606  165.1953 N.am    1  UNL1       -0.2935
      3 C         139.0471  140.8781  165.3241 C.2     1  UNL1        0.2240
      4 O         140.2981  140.5424  166.0806 O.2     1  UNL1       -0.2750
      5 H         137.1315  140.0810  164.6988 H       1  UNL1        0.1503
      6 C         138.8906  142.2315  164.6964 C.3     1  UNL1        0.0906
      7 C         139.7763  143.3638  165.1247 C.3     1  UNL1        0.0104
      8 C         139.6199  144.7171  164.4970 C.3     1  UNL1        0.0006
      9 C         138.5779  144.9381  163.4410 C.3     1  UNL1        0.0014
     10 C         137.6922  143.8058  163.0126 C.3     1  UNL1        0.0160
     11 C         137.8486  142.4525  163.6403 C.3     1  UNL1        0.0594
     12 N         136.9630  141.3202  163.2119 N.3     1  UNL1       -0.3218
     13 H         136.3186  141.6463  162.4916 H       1  UNL1        0.1188
     14 H         136.4325  140.9811  164.0144 H       1  UNL1        0.1188
     15 C         137.4088  138.1928  167.1118 C.1     1  UNL1        0.0927
     16 N         136.7086  137.8783  168.4005 N.1     1  UNL1       -0.1942
     17 C         138.9657  137.4684  165.1621 C.3     1  UNL1        0.0616
     18 C         141.0263  138.3949  161.2704 C.ar    1  UNL1       -0.0000
     19 C         141.8339  138.2048  162.5200 C.ar    1  UNL1       -0.0003
     20 C         141.1471  137.8960  163.8172 C.ar    1  UNL1       -0.0042
     21 C         139.6526  137.7772  163.8648 C.ar    1  UNL1       -0.0194
     22 C         138.8449  137.9673  162.6152 C.ar    1  UNL1       -0.0042
     23 C         139.5318  138.2761  161.3180 C.ar    1  UNL1       -0.0003
     24 C         143.0870  139.3215  157.3787 C.ar    1  UNL1        0.0684
     25 C         141.8708  138.4436  157.3930 C.ar    1  UNL1        0.0103
     26 C         141.1839  138.1348  158.6902 C.ar    1  UNL1        0.0007
     27 C         141.7132  138.7038  159.9731 C.ar    1  UNL1        0.0000
     28 C         142.9294  139.5816  159.9589 C.ar    1  UNL1        0.0007
     29 C         143.6163  139.8905  158.6616 C.ar    1  UNL1        0.0103
     30 N         144.4607  139.9392  154.7842 N.1     1  UNL1       -0.1908
     31 C         143.7738  139.6303  156.0815 C.1     1  UNL1        0.1004
@<TRIPOS>BOND
     1    30    31    3
     2    31    24    1
     3    24    25   ar
     4    25    26   ar
     5    26    27   ar
     6    27    18    1
     7    18    19   ar
     8    19    20   ar
     9    20    21   ar
    10    21    17    1
    11     1    17    1
    12     1    15    1
    13    15    16    3
    14     1     2    1
    15     2     3   am
    16     3     4    2
    17     6     3    1
    18     6     7    1
    19     7     8    1
    20     8     9    1
    21     9    10    1
    22    10    11    1
    23    11    12    1
    24    21    22   ar
    25    22    23   ar
    26    27    28   ar
    27    28    29   ar
    28    29    24   ar
    29    23    18   ar
    30    11     6    1
    31     2     5    1
    32    12    13    1
    33    12    14    1
@<TRIPOS>MOLECULE
*****
 31 33 0 0 0
SMALL
GASTEIGER

@<TRIPOS>ATOM
      1 C         142.7436  138.0445  159.4609 C.3     1  UNL1        0.1684
      2 N         142.3780  136.8231  158.6705 N.am    1  UNL1       -0.2935
      3 C         142.8756  136.6629  157.2645 C.2     1  UNL1        0.2240
      4 O         143.7388  137.7240  156.6490 O.2     1  UNL1       -0.2750
      5 H         141.8115  136.1267  159.0745 H       1  UNL1        0.1503
      6 C         142.5101  135.4415  156.4741 C.3     1  UNL1        0.0906
      7 C         141.7720  135.5815  155.1758 C.3     1  UNL1        0.0104
      8 C         141.4064  134.3603  154.3854 C.3     1  UNL1        0.0006
      9 C         141.7789  132.9990  154.8933 C.3     1  UNL1        0.0014
     10 C         142.5170  132.8589  156.1916 C.3     1  UNL1        0.0160
     11 C         142.8825  134.0802  156.9821 C.3     1  UNL1        0.0594
     12 N         143.6206  133.9402  158.2804 N.3     1  UNL1       -0.3218
     13 H         143.7905  132.9525  158.4701 H       1  UNL1        0.1188
     14 H         143.0616  134.3399  159.0341 H       1  UNL1        0.1188
     15 C         142.1254  139.3689  159.1236 C.1     1  UNL1        0.0927
     16 N         141.5071  140.6933  158.7864 N.1     1  UNL1       -0.1942
     17 C         143.7274  137.9414  160.5885 C.3     1  UNL1        0.0616
     18 C         142.4569  138.9614  164.7832 C.ar    1  UNL1       -0.0000
     19 C         141.5640  138.1305  163.9102 C.ar    1  UNL1       -0.0003
     20 C         141.9874  137.7905  162.5120 C.ar    1  UNL1       -0.0042
     21 C         143.3039  138.2814  161.9867 C.ar    1  UNL1       -0.0194
     22 C         144.1969  139.1123  162.8597 C.ar    1  UNL1       -0.0042
     23 C         143.7734  139.4523  164.2579 C.ar    1  UNL1       -0.0003
     24 C         141.1865  139.9815  168.9779 C.ar    1  UNL1        0.0684
     25 C         140.2215  140.1449  167.8413 C.ar    1  UNL1        0.0103
     26 C         140.6449  139.8049  166.4430 C.ar    1  UNL1        0.0007
     27 C         142.0335  139.3014  166.1814 C.ar    1  UNL1        0.0000
     28 C         142.9985  139.1380  167.3180 C.ar    1  UNL1        0.0007
     29 C         142.5750  139.4780  168.7163 C.ar    1  UNL1        0.0103
     30 N         140.3396  140.6615  171.7744 N.1     1  UNL1       -0.1908
     31 C         140.7630  140.3215  170.3761 C.1     1  UNL1        0.1004
@<TRIPOS>BOND
     1    30    31    3
     2    31    24    1
     3    24    25   ar
     4    25    26   ar
     5    26    27   ar
     6    27    18    1
     7    18    19   ar
     8    19    20   ar
     9    20    21   ar
    10    21    17    1
    11     1    17    1
    12     1    15    1
    13    15    16    3
    14     1     2    1
    15     2     3   am
    16     3     4    2
    17     6     3    1
    18     6     7    1
    19     7     8    1
    20     8     9    1
    21     9    10    1
    22    10    11    1
    23    11    12    1
    24    21    22   ar
    25    22    23   ar
    26    27    28   ar
    27    28    29   ar
    28    29    24   ar
    29    23    18   ar
    30    11     6    1
    31     2     5    1
    32    12    13    1
    33    12    14    1
@<TRIPOS>MOLECULE
*****
 31 33 0 0 0
SMALL
GASTEIGER

@<TRIPOS>ATOM
      1 C         138.4859  139.8376  159.5180 C.3     1  UNL1        0.1684
      2 N         137.9638  140.2893  158.1863 N.am    1  UNL1       -0.2935
      3 C         137.8317  141.7538  157.8901 C.2     1  UNL1        0.2240
      4 O         138.2217  142.7666  158.9255 O.2     1  UNL1       -0.2750
      5 H         137.7079  139.6246  157.5066 H       1  UNL1        0.1503
      6 C         137.3097  142.2056  156.5583 C.3     1  UNL1        0.0906
      7 C         137.9668  143.3492  155.8439 C.3     1  UNL1        0.0104
      8 C         137.4448  143.8009  154.5122 C.3     1  UNL1        0.0006
      9 C         136.2657  143.1091  153.8950 C.3     1  UNL1        0.0014
     10 C         135.6086  141.9655  154.6094 C.3     1  UNL1        0.0160
     11 C         136.1306  141.5138  155.9411 C.3     1  UNL1        0.0594
     12 N         135.4735  140.3702  156.6555 N.3     1  UNL1       -0.3218
     13 H         134.6948  140.0221  156.0960 H       1  UNL1        0.1188
     14 H         135.1264  140.6888  157.5601 H       1  UNL1        0.1188
     15 C         139.9566  139.6140  159.7104 C.1     1  UNL1        0.0927
     16 N         141.4273  139.3904  159.9028 N.1     1  UNL1       -0.1942
     17 C         137.5372  139.6094  160.6573 C.3     1  UNL1        0.0616
     18 C         138.8392  140.4744  164.8771 C.ar    1  UNL1       -0.0000
     19 C         139.0518  139.1100  164.2913 C.ar    1  UNL1       -0.0003
     20 C         138.6178  138.8216  162.8847 C.ar    1  UNL1       -0.0042
     21 C         137.9712  139.8977  162.0639 C.ar    1  UNL1       -0.0194
     22 C         137.7587  141.2622  162.6496 C.ar    1  UNL1       -0.0042
     23 C         138.1926  141.5505  164.0562 C.ar    1  UNL1       -0.0003
     24 C         140.1412  141.3394  169.0968 C.ar    1  UNL1        0.0684
     25 C         139.3698  140.0898  168.7912 C.ar    1  UNL1        0.0103
     26 C         138.9358  139.8014  167.3846 C.ar    1  UNL1        0.0007
     27 C         139.2732  140.7627  166.2837 C.ar    1  UNL1        0.0000
     28 C         140.0446  142.0123  166.5893 C.ar    1  UNL1        0.0007
     29 C         140.4785  142.3006  167.9959 C.ar    1  UNL1        0.0103
     30 N         141.0092  141.9160  171.9100 N.1     1  UNL1       -0.1908
     31 C         140.5752  141.6277  170.5034 C.1     1  UNL1        0.1004
@<TRIPOS>BOND
     1    30    31    3
     2    31    24    1
     3    24    25   ar
     4    25    26   ar
     5    26    27   ar
     6    27    18    1
     7    18    19   ar
     8    19    20   ar
     9    20    21   ar
    10    21    17    1
    11     1    17    1
    12     1    15    1
    13    15    16    3
    14     1     2    1
    15     2     3   am
    16     3     4    2
    17     6     3    1
    18     6     7    1
    19     7     8    1
    20     8     9    1
    21     9    10    1
    22    10    11    1
    23    11    12    1
    24    21    22   ar
    25    22    23   ar
    26    27    28   ar
    27    28    29   ar
    28    29    24   ar
    29    23    18   ar
    30    11     6    1
    31     2     5    1
    32    12    13    1
    33    12    14    1
@<TRIPOS>MOLECULE
*****
 31 33 0 0 0
SMALL
GASTEIGER

@<TRIPOS>ATOM
      1 C         142.5568  138.5363  159.4841 C.3     1  UNL1        0.1684
      2 N         141.8220  139.8164  159.7518 N.am    1  UNL1       -0.2935
      3 C         142.5846  141.0956  159.9308 C.2     1  UNL1        0.2240
      4 O         144.0820  141.0948  159.8421 O.2     1  UNL1       -0.2750
      5 H         140.8392  139.8169  159.8099 H       1  UNL1        0.1503
      6 C         141.8498  142.3756  160.1984 C.3     1  UNL1        0.0906
      7 C         142.0852  143.5723  159.3251 C.3     1  UNL1        0.0104
      8 C         141.3505  144.8523  159.5928 C.3     1  UNL1        0.0006
      9 C         140.3803  144.9357  160.7337 C.3     1  UNL1        0.0014
     10 C         140.1449  143.7390  161.6070 C.3     1  UNL1        0.0160
     11 C         140.8796  142.4590  161.3394 C.3     1  UNL1        0.0594
     12 N         140.6442  141.2624  162.2127 N.3     1  UNL1       -0.3218
     13 H         139.9597  141.4958  162.9320 H       1  UNL1        0.1188
     14 H         141.5210  140.9862  162.6545 H       1  UNL1        0.1188
     15 C         142.9399  138.1708  158.0806 C.1     1  UNL1        0.0927
     16 N         143.3231  137.8054  156.6772 N.1     1  UNL1       -0.1942
     17 C         142.9085  137.6218  160.6198 C.3     1  UNL1        0.0616
     18 C         142.0347  138.8581  164.8575 C.ar    1  UNL1       -0.0000
     19 C         141.0709  137.9772  164.1194 C.ar    1  UNL1       -0.0003
     20 C         141.3621  137.5651  162.7068 C.ar    1  UNL1       -0.0042
     21 C         142.6172  138.0339  162.0324 C.ar    1  UNL1       -0.0194
     22 C         143.5811  138.9149  162.7705 C.ar    1  UNL1       -0.0042
     23 C         143.2898  139.3270  164.1831 C.ar    1  UNL1       -0.0003
     24 C         141.1609  140.0945  169.0952 C.ar    1  UNL1        0.0684
     25 C         142.5273  139.5983  168.7252 C.ar    1  UNL1        0.0103
     26 C         142.8185  139.1862  167.3127 C.ar    1  UNL1        0.0007
     27 C         141.7435  139.2702  166.2701 C.ar    1  UNL1        0.0000
     28 C         140.3771  139.7664  166.6400 C.ar    1  UNL1        0.0007
     29 C         140.0859  140.1785  168.0526 C.ar    1  UNL1        0.0103
     30 N         140.5784  140.9187  171.9203 N.1     1  UNL1       -0.1908
     31 C         140.8697  140.5066  170.5078 C.1     1  UNL1        0.1004
@<TRIPOS>BOND
     1    30    31    3
     2    31    24    1
     3    24    25   ar
     4    25    26   ar
     5    26    27   ar
     6    27    18    1
     7    18    19   ar
     8    19    20   ar
     9    20    21   ar
    10    21    17    1
    11     1    17    1
    12     1    15    1
    13    15    16    3
    14     1     2    1
    15     2     3   am
    16     3     4    2
    17     6     3    1
    18     6     7    1
    19     7     8    1
    20     8     9    1
    21     9    10    1
    22    10    11    1
    23    11    12    1
    24    21    22   ar
    25    22    23   ar
    26    27    28   ar
    27    28    29   ar
    28    29    24   ar
    29    23    18   ar
    30    11     6    1
    31     2     5    1
    32    12    13    1
    33    12    14    1
@<TRIPOS>MOLECULE
*****
 31 33 0 0 0
SMALL
GASTEIGER

@<TRIPOS>ATOM
      1 C         142.3466  139.8234  167.2440 C.3     1  UNL1        0.1684
      2 N         141.4296  140.8068  166.5788 N.am    1  UNL1       -0.2935
      3 C         141.9646  142.1213  166.0933 C.2     1  UNL1        0.2240
      4 O         143.4165  142.4526  166.2729 O.2     1  UNL1       -0.2750
      5 H         140.4767  140.5894  166.4609 H       1  UNL1        0.1503
      6 C         141.0476  143.1046  165.4282 C.3     1  UNL1        0.0906
      7 C         139.7750  143.5198  166.1049 C.3     1  UNL1        0.0104
      8 C         138.8581  144.5030  165.4399 C.3     1  UNL1        0.0006
      9 C         139.2138  145.0712  164.0980 C.3     1  UNL1        0.0014
     10 C         140.4864  144.6561  163.4212 C.3     1  UNL1        0.0160
     11 C         141.4034  143.6728  164.0863 C.3     1  UNL1        0.0594
     12 N         142.6760  143.2577  163.4095 N.3     1  UNL1       -0.3218
     13 H         142.7568  143.7379  162.5133 H       1  UNL1        0.1188
     14 H         142.6659  142.2494  163.2554 H       1  UNL1        0.1188
     15 C         142.5942  139.9093  168.7209 C.1     1  UNL1        0.0927
     16 N         142.8417  139.9951  170.1978 N.1     1  UNL1       -0.1942
     17 C         143.0158  138.7543  166.4322 C.3     1  UNL1        0.0616
     18 C         142.1321  138.3827  162.0355 C.ar    1  UNL1       -0.0000
     19 C         143.2343  139.2850  162.5053 C.ar    1  UNL1       -0.0003
     20 C         143.5289  139.4089  163.9708 C.ar    1  UNL1       -0.0042
     21 C         142.7212  138.6304  164.9666 C.ar    1  UNL1       -0.0194
     22 C         141.6190  137.7281  164.4968 C.ar    1  UNL1       -0.0042
     23 C         141.3244  137.6042  163.0313 C.ar    1  UNL1       -0.0003
     24 C         141.2483  138.0110  157.6388 C.ar    1  UNL1        0.0684
     25 C         140.1906  138.5126  158.5766 C.ar    1  UNL1        0.0103
     26 C         140.4852  138.6365  160.0422 C.ar    1  UNL1        0.0007
     27 C         141.8375  138.2588  160.5699 C.ar    1  UNL1        0.0000
     28 C         142.8952  137.7572  159.6321 C.ar    1  UNL1        0.0007
     29 C         142.6006  137.6333  158.1665 C.ar    1  UNL1        0.0103
     30 N         140.6591  137.7632  154.7077 N.1     1  UNL1       -0.1908
     31 C         140.9537  137.8871  156.1733 C.1     1  UNL1        0.1004
@<TRIPOS>BOND
     1    30    31    3
     2    31    24    1
     3    24    25   ar
     4    25    26   ar
     5    26    27   ar
     6    27    18    1
     7    18    19   ar
     8    19    20   ar
     9    20    21   ar
    10    21    17    1
    11     1    17    1
    12     1    15    1
    13    15    16    3
    14     1     2    1
    15     2     3   am
    16     3     4    2
    17     6     3    1
    18     6     7    1
    19     7     8    1
    20     8     9    1
    21     9    10    1
    22    10    11    1
    23    11    12    1
    24    21    22   ar
    25    22    23   ar
    26    27    28   ar
    27    28    29   ar
    28    29    24   ar
    29    23    18   ar
    30    11     6    1
    31     2     5    1
    32    12    13    1
    33    12    14    1
@<TRIPOS>MOLECULE
*****
 31 33 0 0 0
SMALL
GASTEIGER

@<TRIPOS>ATOM
      1 C         143.3542  139.2333  159.7378 C.3     1  UNL1        0.1684
      2 N         144.0497  139.4345  158.4240 N.am    1  UNL1       -0.2935
      3 C         144.4212  140.8170  157.9762 C.2     1  UNL1        0.2240
      4 O         144.0973  141.9983  158.8420 O.2     1  UNL1       -0.2750
      5 H         144.2623  138.6592  157.8558 H       1  UNL1        0.1503
      6 C         145.1168  141.0183  156.6624 C.3     1  UNL1        0.0906
      7 C         144.7579  140.1613  155.4848 C.3     1  UNL1        0.0104
      8 C         145.4534  140.3626  154.1711 C.3     1  UNL1        0.0006
      9 C         146.5077  141.4208  154.0351 C.3     1  UNL1        0.0014
     10 C         146.8666  142.2777  155.2127 C.3     1  UNL1        0.0160
     11 C         146.1711  142.0765  156.5264 C.3     1  UNL1        0.0594
     12 N         146.5300  142.9335  157.7040 N.3     1  UNL1       -0.3218
     13 H         147.2590  143.5939  157.4343 H       1  UNL1        0.1188
     14 H         146.8699  142.3431  158.4631 H       1  UNL1        0.1188
     15 C         141.8856  139.5133  159.8595 C.1     1  UNL1        0.0927
     16 N         140.4170  139.7933  159.9812 N.1     1  UNL1       -0.1942
     17 C         144.1272  138.7520  160.9297 C.3     1  UNL1        0.0616
     18 C         142.8604  139.9666  165.0733 C.ar    1  UNL1       -0.0000
     19 C         142.2871  138.7307  164.4458 C.ar    1  UNL1       -0.0003
     20 C         142.7094  138.3258  163.0646 C.ar    1  UNL1       -0.0042
     21 C         143.7050  139.1569  162.3109 C.ar    1  UNL1       -0.0194
     22 C         144.2782  140.3928  162.9384 C.ar    1  UNL1       -0.0042
     23 C         143.8559  140.7977  164.3196 C.ar    1  UNL1       -0.0003
     24 C         141.5935  141.1812  169.2170 C.ar    1  UNL1        0.0684
     25 C         142.2876  139.8695  168.9992 C.ar    1  UNL1        0.0103
     26 C         142.7099  139.4646  167.6180 C.ar    1  UNL1        0.0007
     27 C         142.4381  140.3715  166.4545 C.ar    1  UNL1        0.0000
     28 C         141.7440  141.6833  166.6723 C.ar    1  UNL1        0.0007
     29 C         141.3217  142.0881  168.0535 C.ar    1  UNL1        0.0103
     30 N         140.7489  141.9910  171.9794 N.1     1  UNL1       -0.1908
     31 C         141.1712  141.5861  170.5982 C.1     1  UNL1        0.1004
@<TRIPOS>BOND
     1    30    31    3
     2    31    24    1
     3    24    25   ar
     4    25    26   ar
     5    26    27   ar
     6    27    18    1
     7    18    19   ar
     8    19    20   ar
     9    20    21   ar
    10    21    17    1
    11     1    17    1
    12     1    15    1
    13    15    16    3
    14     1     2    1
    15     2     3   am
    16     3     4    2
    17     6     3    1
    18     6     7    1
    19     7     8    1
    20     8     9    1
    21     9    10    1
    22    10    11    1
    23    11    12    1
    24    21    22   ar
    25    22    23   ar
    26    27    28   ar
    27    28    29   ar
    28    29    24   ar
    29    23    18   ar
    30    11     6    1
    31     2     5    1
    32    12    13    1
    33    12    14    1
@<TRIPOS>MOLECULE
*****
 31 33 0 0 0
SMALL
GASTEIGER

@<TRIPOS>ATOM
      1 C         141.9397  138.5301  164.8942 C.3     1  UNL1        0.1684
      2 N         141.3867  139.9204  164.7877 N.am    1  UNL1       -0.2935
      3 C         140.0144  140.2239  165.3118 C.2     1  UNL1        0.2240
      4 O         139.1951  139.1371  165.9424 O.2     1  UNL1       -0.2750
      5 H         141.9244  140.6337  164.3738 H       1  UNL1        0.1503
      6 C         139.4613  141.6142  165.2053 C.3     1  UNL1        0.0906
      7 C         140.1972  142.7638  165.8274 C.3     1  UNL1        0.0104
      8 C         139.6442  144.1540  165.7209 C.3     1  UNL1        0.0006
      9 C         138.3554  144.3947  164.9924 C.3     1  UNL1        0.0014
     10 C         137.6195  143.2451  164.3704 C.3     1  UNL1        0.0160
     11 C         138.1725  141.8549  164.4768 C.3     1  UNL1        0.0594
     12 N         137.4366  140.7053  163.8547 N.3     1  UNL1       -0.3218
     13 H         136.5880  141.0484  163.4047 H       1  UNL1        0.1188
     14 H         137.1887  140.0293  164.5773 H       1  UNL1        0.1188
     15 C         143.0009  138.2208  165.9082 C.1     1  UNL1        0.0927
     16 N         144.0621  137.9114  166.9222 N.1     1  UNL1       -0.1942
     17 C         141.4316  137.4493  163.9867 C.3     1  UNL1        0.0616
     18 C         140.0352  138.4710  159.8326 C.ar    1  UNL1       -0.0000
     19 C         141.5004  138.3184  160.1150 C.ar    1  UNL1       -0.0003
     20 C         141.9659  137.9778  161.4997 C.ar    1  UNL1       -0.0042
     21 C         140.9662  137.7899  162.6020 C.ar    1  UNL1       -0.0194
     22 C         139.5009  137.9425  162.3196 C.ar    1  UNL1       -0.0042
     23 C         139.0354  138.2831  160.9350 C.ar    1  UNL1       -0.0003
     24 C         138.6387  139.4927  155.6786 C.ar    1  UNL1        0.0684
     25 C         138.3231  140.4099  156.8228 C.ar    1  UNL1        0.0103
     26 C         138.7886  140.0693  158.2074 C.ar    1  UNL1        0.0007
     27 C         139.5697  138.8116  158.4480 C.ar    1  UNL1        0.0000
     28 C         139.8853  137.8944  157.3038 C.ar    1  UNL1        0.0007
     29 C         139.4198  138.2350  155.9191 C.ar    1  UNL1        0.0103
     30 N         137.7078  140.1739  152.9093 N.1     1  UNL1       -0.1908
     31 C         138.1732  139.8333  154.2939 C.1     1  UNL1        0.1004
@<TRIPOS>BOND
     1    30    31    3
     2    31    24    1
     3    24    25   ar
     4    25    26   ar
     5    26    27   ar
     6    27    18    1
     7    18    19   ar
     8    19    20   ar
     9    20    21   ar
    10    21    17    1
    11     1    17    1
    12     1    15    1
    13    15    16    3
    14     1     2    1
    15     2     3   am
    16     3     4    2
    17     6     3    1
    18     6     7    1
    19     7     8    1
    20     8     9    1
    21     9    10    1
    22    10    11    1
    23    11    12    1
    24    21    22   ar
    25    22    23   ar
    26    27    28   ar
    27    28    29   ar
    28    29    24   ar
    29    23    18   ar
    30    11     6    1
    31     2     5    1
    32    12    13    1
    33    12    14    1
@<TRIPOS>MOLECULE
*****
 31 33 0 0 0
SMALL
GASTEIGER

@<TRIPOS>ATOM
      1 C         138.3249  140.2457  159.5685 C.3     1  UNL1        0.1684
      2 N         138.9041  139.2259  158.6332 N.am    1  UNL1       -0.2935
      3 C         140.3898  139.0324  158.5615 C.2     1  UNL1        0.2240
      4 O         141.2963  139.8585  159.4250 O.2     1  UNL1       -0.2750
      5 H         138.3091  138.6837  158.0665 H       1  UNL1        0.1503
      6 C         140.9691  138.0126  157.6263 C.3     1  UNL1        0.0906
      7 C         142.3354  137.4497  157.8835 C.3     1  UNL1        0.0104
      8 C         142.9147  136.4299  156.9483 C.3     1  UNL1        0.0006
      9 C         142.1276  135.9732  155.7559 C.3     1  UNL1        0.0014
     10 C         140.7612  136.5361  155.4987 C.3     1  UNL1        0.0160
     11 C         140.1820  137.5558  156.4339 C.3     1  UNL1        0.0594
     12 N         138.8156  138.1188  156.1767 N.3     1  UNL1       -0.3218
     13 H         138.4290  137.6999  155.3309 H       1  UNL1        0.1188
     14 H         138.8815  139.1295  156.0560 H       1  UNL1        0.1188
     15 C         138.5329  141.7078  159.3060 C.1     1  UNL1        0.0927
     16 N         138.7410  143.1699  159.0435 N.1     1  UNL1       -0.1942
     17 C         137.5376  139.8033  160.7662 C.3     1  UNL1        0.0616
     18 C         139.0504  140.6976  164.9088 C.ar    1  UNL1       -0.0000
     19 C         137.9036  141.4819  164.3436 C.ar    1  UNL1       -0.0003
     20 C         137.3993  141.1838  162.9627 C.ar    1  UNL1       -0.0042
     21 C         138.0419  140.1014  162.1471 C.ar    1  UNL1       -0.0194
     22 C         139.1887  139.3170  162.7123 C.ar    1  UNL1       -0.0042
     23 C         139.6929  139.6151  164.0932 C.ar    1  UNL1       -0.0003
     24 C         140.5632  141.5918  169.0515 C.ar    1  UNL1        0.0684
     25 C         139.8683  140.2924  168.7711 C.ar    1  UNL1        0.0103
     26 C         139.3641  139.9943  167.3902 C.ar    1  UNL1        0.0007
     27 C         139.5546  140.9956  166.2897 C.ar    1  UNL1        0.0000
     28 C         140.2495  142.2950  166.5702 C.ar    1  UNL1        0.0007
     29 C         140.7537  142.5931  167.9511 C.ar    1  UNL1        0.0103
     30 N         141.5717  142.1880  171.8133 N.1     1  UNL1       -0.1908
     31 C         141.0674  141.8899  170.4324 C.1     1  UNL1        0.1004
@<TRIPOS>BOND
     1    30    31    3
     2    31    24    1
     3    24    25   ar
     4    25    26   ar
     5    26    27   ar
     6    27    18    1
     7    18    19   ar
     8    19    20   ar
     9    20    21   ar
    10    21    17    1
    11     1    17    1
    12     1    15    1
    13    15    16    3
    14     1     2    1
    15     2     3   am
    16     3     4    2
    17     6     3    1
    18     6     7    1
    19     7     8    1
    20     8     9    1
    21     9    10    1
    22    10    11    1
    23    11    12    1
    24    21    22   ar
    25    22    23   ar
    26    27    28   ar
    27    28    29   ar
    28    29    24   ar
    29    23    18   ar
    30    11     6    1
    31     2     5    1
    32    12    13    1
    33    12    14    1
