@<TRIPOS>MOLECULE
*****
 32 35 0 0 0
SMALL
GASTEIGER

@<TRIPOS>ATOM
      1 N         140.2871  140.2944  167.7468 N.ar    1  UNL1       -0.3169
      2 C         139.1668  139.9791  168.6931 C.ar    1  UNL1        0.0779
      3 C         139.4212  140.7161  169.9745 C.ar    1  UNL1        0.0394
      4 C         140.6987  141.4869  169.8202 C.ar    1  UNL1        0.1041
      5 N         141.4438  142.3925  170.7554 N.ar    1  UNL1       -0.2124
      6 C         142.7241  143.0374  170.3139 C.ar    1  UNL1        0.2149
      7 N         143.4692  143.9430  171.2492 N.pl3   1  UNL1       -0.3274
      8 N         143.2593  142.7768  168.9371 N.ar    1  UNL1       -0.1977
      9 C         142.5141  141.8712  168.0018 C.ar    1  UNL1        0.1491
     10 C         141.2339  141.2263  168.4433 C.ar    1  UNL1        0.1101
     11 H         143.1179  144.1141  172.1528 H       1  UNL1        0.1452
     12 H         144.3095  144.3663  170.9594 H       1  UNL1        0.1452
     13 N         143.0493  141.6105  166.6250 N.pl3   1  UNL1       -0.3119
     14 H         142.9399  140.7225  166.2143 H       1  UNL1        0.1486
     15 C         143.7512  142.7029  165.8739 C.3     1  UNL1        0.1383
     16 C         144.3315  142.4279  164.5183 C.ar    1  UNL1        0.1201
     17 C         143.7342  142.8356  163.2042 C.ar    1  UNL1        0.0553
     18 C         144.6446  142.3565  162.1126 C.ar    1  UNL1        0.1546
     19 C         144.4323  142.5476  160.6401 C.3     1  UNL1        0.0754
     20 O         145.8046  141.6527  162.7520 O.2     1  UNL1       -0.3580
     21 N         145.6112  141.6968  164.2389 N.ar    1  UNL1       -0.0800
     22 C         140.4348  139.7699  166.3493 C.3     1  UNL1        0.1521
     23 C         138.3900  141.8651  162.9318 C.ar    1  UNL1        0.1916
     24 C         137.8200  140.5898  163.4785 C.ar    1  UNL1        0.0430
     25 C         138.5017  139.8915  164.6177 C.ar    1  UNL1        0.0200
     26 C         139.7532  140.4683  165.2101 C.ar    1  UNL1        0.0851
     27 N         140.3231  141.7436  164.6634 N.ar    1  UNL1       -0.2115
     28 C         139.6415  142.4420  163.5243 C.ar    1  UNL1        0.2598
     29 C         138.2641  142.4515  160.4039 C.3     1  UNL1        0.2527
     30 O         137.7084  142.5636  161.7927 O.3     1  UNL1       -0.4667
     31 O         140.2114  143.7173  162.9776 O.3     1  UNL1       -0.4541
     32 C         139.5597  145.0291  163.3005 C.3     1  UNL1        0.2543
@<TRIPOS>BOND
     1    29    30    1
     2    30    23    1
     3    23    24   ar
     4    24    25   ar
     5    25    26   ar
     6    26    22    1
     7    22     1    1
     8     1     2   ar
     9     2     3   ar
    10     3     4   ar
    11     4     5   ar
    12     5     6   ar
    13     6     7    1
    14     6     8   ar
    15     8     9   ar
    16     9    13    1
    17    13    15    1
    18    15    16    1
    19    16    17   ar
    20    17    18   ar
    21    18    19    1
    22    18    20   ar
    23    20    21   ar
    24     9    10   ar
    25    26    27   ar
    26    27    28   ar
    27    28    31    1
    28    31    32    1
    29    28    23   ar
    30    10     1   ar
    31    10     4   ar
    32    21    16   ar
    33     7    11    1
    34     7    12    1
    35    13    14    1
@<TRIPOS>MOLECULE
*****
 32 35 0 0 0
SMALL
GASTEIGER

@<TRIPOS>ATOM
      1 N         142.2911  141.8679  167.8617 N.ar    1  UNL1       -0.3169
      2 C         142.9473  142.5569  169.0213 C.ar    1  UNL1        0.0779
      3 C         142.1143  142.3034  170.2428 C.ar    1  UNL1        0.0394
      4 C         140.9433  141.4579  169.8381 C.ar    1  UNL1        0.1041
      5 N         139.7917  140.8983  170.6194 N.ar    1  UNL1       -0.2124
      6 C         138.7492  140.0694  169.9291 C.ar    1  UNL1        0.2149
      7 N         137.5976  139.5098  170.7104 N.pl3   1  UNL1       -0.3274
      8 N         138.8585  139.8003  168.4575 N.ar    1  UNL1       -0.1977
      9 C         140.0102  140.3599  167.6762 C.ar    1  UNL1        0.1491
     10 C         141.0526  141.1887  168.3664 C.ar    1  UNL1        0.1101
     11 H         137.5259  139.6865  171.6763 H       1  UNL1        0.1452
     12 H         136.9134  138.9659  170.2574 H       1  UNL1        0.1452
     13 N         140.1194  140.0908  166.2046 N.pl3   1  UNL1       -0.3119
     14 H         139.6802  140.6918  165.5603 H       1  UNL1        0.1486
     15 C         140.8979  138.9058  165.7146 C.3     1  UNL1        0.1383
     16 C         140.7093  138.4131  164.3105 C.ar    1  UNL1        0.1201
     17 C         139.6124  138.8218  163.3725 C.ar    1  UNL1        0.0553
     18 C         139.8096  138.0864  162.0801 C.ar    1  UNL1        0.1546
     19 C         138.9407  138.1952  160.8623 C.3     1  UNL1        0.0754
     20 O         141.0284  137.2232  162.2193 O.2     1  UNL1       -0.3580
     21 N         141.5845  137.4250  163.5978 N.ar    1  UNL1       -0.0800
     22 C         142.7864  141.8596  166.4459 C.3     1  UNL1        0.1521
     23 C         141.2071  144.8646  163.4919 C.ar    1  UNL1        0.1916
     24 C         142.6501  144.4573  163.4485 C.ar    1  UNL1        0.0430
     25 C         143.1765  143.4556  164.4333 C.ar    1  UNL1        0.0200
     26 C         142.2599  142.8613  165.4612 C.ar    1  UNL1        0.0851
     27 N         140.8169  143.2686  165.5045 N.ar    1  UNL1       -0.2115
     28 C         140.2906  144.2703  164.5199 C.ar    1  UNL1        0.2598
     29 C         140.4379  145.4620  161.0833 C.3     1  UNL1        0.2527
     30 O         140.6806  145.8662  162.5072 O.3     1  UNL1       -0.4667
     31 O         138.8476  144.6776  164.5632 O.3     1  UNL1       -0.4541
     32 C         137.8714  144.0849  163.5907 C.3     1  UNL1        0.2543
@<TRIPOS>BOND
     1    29    30    1
     2    30    23    1
     3    23    24   ar
     4    24    25   ar
     5    25    26   ar
     6    26    22    1
     7    22     1    1
     8     1     2   ar
     9     2     3   ar
    10     3     4   ar
    11     4     5   ar
    12     5     6   ar
    13     6     7    1
    14     6     8   ar
    15     8     9   ar
    16     9    13    1
    17    13    15    1
    18    15    16    1
    19    16    17   ar
    20    17    18   ar
    21    18    19    1
    22    18    20   ar
    23    20    21   ar
    24     9    10   ar
    25    26    27   ar
    26    27    28   ar
    27    28    31    1
    28    31    32    1
    29    28    23   ar
    30    10     1   ar
    31    10     4   ar
    32    21    16   ar
    33     7    11    1
    34     7    12    1
    35    13    14    1
@<TRIPOS>MOLECULE
*****
 32 35 0 0 0
SMALL
GASTEIGER

@<TRIPOS>ATOM
      1 N         138.8536  139.1820  165.0357 N.ar    1  UNL1       -0.3169
      2 C         139.3884  137.7856  164.9168 C.ar    1  UNL1        0.0779
      3 C         139.2919  137.3733  163.4778 C.ar    1  UNL1        0.0394
      4 C         138.6975  138.5149  162.7074 C.ar    1  UNL1        0.1041
      5 N         138.3679  138.6809  161.2535 N.ar    1  UNL1       -0.2124
      6 C         137.7674  139.9648  160.7625 C.ar    1  UNL1        0.2149
      7 N         137.4378  140.1308  159.3086 N.pl3   1  UNL1       -0.3274
      8 N         137.4965  141.0826  161.7253 N.ar    1  UNL1       -0.1977
      9 C         137.8262  140.9166  163.1792 C.ar    1  UNL1        0.1491
     10 C         138.4266  139.6327  163.6702 C.ar    1  UNL1        0.1101
     11 H         137.6156  139.3971  158.6767 H       1  UNL1        0.1452
     12 H         137.0437  140.9734  158.9863 H       1  UNL1        0.1452
     13 N         137.5553  142.0344  164.1421 N.pl3   1  UNL1       -0.3119
     14 H         137.4336  141.8407  165.0996 H       1  UNL1        0.1486
     15 C         137.4698  143.4475  163.6459 C.3     1  UNL1        0.1383
     16 C         138.7236  144.2122  163.3407 C.ar    1  UNL1        0.1201
     17 C         140.0242  144.1047  164.0802 C.ar    1  UNL1        0.0553
     18 C         141.0013  145.0448  163.4389 C.ar    1  UNL1        0.1546
     19 C         142.4250  145.2588  163.8596 C.3     1  UNL1        0.0754
     20 O         140.3047  145.7334  162.3029 O.2     1  UNL1       -0.3580
     21 N         138.8969  145.2189  162.2421 N.ar    1  UNL1       -0.0800
     22 C         138.7620  139.9865  166.2984 C.3     1  UNL1        0.1521
     23 C         142.4227  142.0271  167.9371 C.ar    1  UNL1        0.1916
     24 C         141.2790  141.6932  168.8484 C.ar    1  UNL1        0.0430
     25 C         140.0587  141.0129  168.3021 C.ar    1  UNL1        0.0200
     26 C         139.9822  140.6667  166.8446 C.ar    1  UNL1        0.0851
     27 N         141.1260  141.0007  165.9334 N.ar    1  UNL1       -0.2115
     28 C         142.3461  141.6809  166.4796 C.ar    1  UNL1        0.2598
     29 C         144.0898  142.4313  169.8883 C.3     1  UNL1        0.2527
     30 O         143.6429  142.7073  168.4833 O.3     1  UNL1       -0.4667
     31 O         143.4898  142.0149  165.5683 O.3     1  UNL1       -0.4541
     32 C         143.8131  141.1175  164.4106 C.3     1  UNL1        0.2543
@<TRIPOS>BOND
     1    29    30    1
     2    30    23    1
     3    23    24   ar
     4    24    25   ar
     5    25    26   ar
     6    26    22    1
     7    22     1    1
     8     1     2   ar
     9     2     3   ar
    10     3     4   ar
    11     4     5   ar
    12     5     6   ar
    13     6     7    1
    14     6     8   ar
    15     8     9   ar
    16     9    13    1
    17    13    15    1
    18    15    16    1
    19    16    17   ar
    20    17    18   ar
    21    18    19    1
    22    18    20   ar
    23    20    21   ar
    24     9    10   ar
    25    26    27   ar
    26    27    28   ar
    27    28    31    1
    28    31    32    1
    29    28    23   ar
    30    10     1   ar
    31    10     4   ar
    32    21    16   ar
    33     7    11    1
    34     7    12    1
    35    13    14    1
@<TRIPOS>MOLECULE
*****
 32 35 0 0 0
SMALL
GASTEIGER

@<TRIPOS>ATOM
      1 N         142.5635  138.3371  164.6709 N.ar    1  UNL1       -0.3169
      2 C         141.3589  137.4480  164.5800 C.ar    1  UNL1        0.0779
      3 C         141.0800  137.1925  163.1284 C.ar    1  UNL1        0.0394
      4 C         142.1122  137.9238  162.3223 C.ar    1  UNL1        0.1041
      5 N         142.3356  138.0369  160.8434 N.ar    1  UNL1       -0.2124
      6 C         143.4760  138.8575  160.3178 C.ar    1  UNL1        0.2149
      7 N         143.6995  138.9706  158.8389 N.pl3   1  UNL1       -0.3274
      8 N         144.3929  139.5649  161.2711 N.ar    1  UNL1       -0.1977
      9 C         144.1694  139.4518  162.7501 C.ar    1  UNL1        0.1491
     10 C         143.0290  138.6312  163.2757 C.ar    1  UNL1        0.1101
     11 H         143.0977  138.5063  158.2132 H       1  UNL1        0.1452
     12 H         144.4479  139.5091  158.4939 H       1  UNL1        0.1452
     13 N         145.0863  140.1592  163.7034 N.pl3   1  UNL1       -0.3119
     14 H         145.3362  139.7321  164.5545 H       1  UNL1        0.1486
     15 C         145.6224  141.5174  163.3600 C.3     1  UNL1        0.1383
     16 C         144.6781  142.6338  163.0254 C.ar    1  UNL1        0.1201
     17 C         143.7765  143.3451  163.9904 C.ar    1  UNL1        0.0553
     18 C         143.0108  144.3859  163.2284 C.ar    1  UNL1        0.1546
     19 C         141.9951  145.3291  163.8017 C.3     1  UNL1        0.0754
     20 O         143.4391  144.3178  161.7925 O.2     1  UNL1       -0.3580
     21 N         144.4695  143.2349  161.6669 N.ar    1  UNL1       -0.0800
     22 C         143.1922  138.8434  165.9352 C.3     1  UNL1        0.1521
     23 C         140.9247  141.6742  168.5989 C.ar    1  UNL1        0.1916
     24 C         141.5712  140.4522  169.1809 C.ar    1  UNL1        0.0430
     25 C         142.3270  139.5086  168.2929 C.ar    1  UNL1        0.0200
     26 C         142.4364  139.7870  166.8231 C.ar    1  UNL1        0.0851
     27 N         141.7898  141.0091  166.2411 N.ar    1  UNL1       -0.2115
     28 C         141.0340  141.9526  167.1290 C.ar    1  UNL1        0.2598
     29 C         140.8200  143.8817  169.9649 C.3     1  UNL1        0.2527
     30 O         140.1689  142.6178  169.4867 O.3     1  UNL1       -0.4667
     31 O         140.3875  143.1746  166.5470 O.3     1  UNL1       -0.4541
     32 C         139.3978  143.0387  165.4281 C.3     1  UNL1        0.2543
@<TRIPOS>BOND
     1    29    30    1
     2    30    23    1
     3    23    24   ar
     4    24    25   ar
     5    25    26   ar
     6    26    22    1
     7    22     1    1
     8     1     2   ar
     9     2     3   ar
    10     3     4   ar
    11     4     5   ar
    12     5     6   ar
    13     6     7    1
    14     6     8   ar
    15     8     9   ar
    16     9    13    1
    17    13    15    1
    18    15    16    1
    19    16    17   ar
    20    17    18   ar
    21    18    19    1
    22    18    20   ar
    23    20    21   ar
    24     9    10   ar
    25    26    27   ar
    26    27    28   ar
    27    28    31    1
    28    31    32    1
    29    28    23   ar
    30    10     1   ar
    31    10     4   ar
    32    21    16   ar
    33     7    11    1
    34     7    12    1
    35    13    14    1
@<TRIPOS>MOLECULE
*****
 32 35 0 0 0
SMALL
GASTEIGER

@<TRIPOS>ATOM
      1 N         138.4966  139.0314  163.9567 N.ar    1  UNL1       -0.3169
      2 C         138.9064  137.7715  163.2534 C.ar    1  UNL1        0.0779
      3 C         138.9913  138.0668  161.7853 C.ar    1  UNL1        0.0394
      4 C         138.6340  139.5093  161.5811 C.ar    1  UNL1        0.1041
      5 N         138.5475  140.3569  160.3467 N.ar    1  UNL1       -0.2124
      6 C         138.1553  141.8008  160.4542 C.ar    1  UNL1        0.2149
      7 N         138.0689  142.6484  159.2197 N.pl3   1  UNL1       -0.3274
      8 N         137.8496  142.3969  161.7962 N.ar    1  UNL1       -0.1977
      9 C         137.9360  141.5492  163.0308 C.ar    1  UNL1        0.1491
     10 C         138.3282  140.1054  162.9232 C.ar    1  UNL1        0.1101
     11 H         138.2696  142.2571  158.3389 H       1  UNL1        0.1452
     12 H         137.8115  143.5960  159.2903 H       1  UNL1        0.1452
     13 N         137.6303  142.1454  164.3728 N.pl3   1  UNL1       -0.3119
     14 H         136.8706  141.8075  164.9000 H       1  UNL1        0.1486
     15 C         138.4821  143.2564  164.9117 C.3     1  UNL1        0.1383
     16 C         139.9762  143.1741  164.8071 C.ar    1  UNL1        0.1201
     17 C         140.9211  142.8394  165.9230 C.ar    1  UNL1        0.0553
     18 C         142.3166  142.8706  165.3738 C.ar    1  UNL1        0.1546
     19 C         143.5737  142.5960  166.1446 C.3     1  UNL1        0.0754
     20 O         142.2342  143.2246  163.9185 O.2     1  UNL1       -0.3580
     21 N         140.7878  143.4122  163.5682 N.ar    1  UNL1       -0.0800
     22 C         138.2912  139.1896  165.4341 C.3     1  UNL1        0.1521
     23 C         141.8265  139.8461  168.1398 C.ar    1  UNL1        0.1916
     24 C         140.4391  140.1239  168.6379 C.ar    1  UNL1        0.0430
     25 C         139.2607  139.9050  167.7359 C.ar    1  UNL1        0.0200
     26 C         139.4696  139.4084  166.3360 C.ar    1  UNL1        0.0851
     27 N         140.8571  139.1307  165.8380 N.ar    1  UNL1       -0.2115
     28 C         142.0354  139.3495  166.7399 C.ar    1  UNL1        0.2598
     29 C         142.8235  140.0469  170.5306 C.3     1  UNL1        0.2527
     30 O         143.0050  140.0649  169.0417 O.3     1  UNL1       -0.4667
     31 O         143.4228  139.0718  166.2419 O.3     1  UNL1       -0.4541
     32 C         143.6777  138.9335  164.7702 C.3     1  UNL1        0.2543
@<TRIPOS>BOND
     1    29    30    1
     2    30    23    1
     3    23    24   ar
     4    24    25   ar
     5    25    26   ar
     6    26    22    1
     7    22     1    1
     8     1     2   ar
     9     2     3   ar
    10     3     4   ar
    11     4     5   ar
    12     5     6   ar
    13     6     7    1
    14     6     8   ar
    15     8     9   ar
    16     9    13    1
    17    13    15    1
    18    15    16    1
    19    16    17   ar
    20    17    18   ar
    21    18    19    1
    22    18    20   ar
    23    20    21   ar
    24     9    10   ar
    25    26    27   ar
    26    27    28   ar
    27    28    31    1
    28    31    32    1
    29    28    23   ar
    30    10     1   ar
    31    10     4   ar
    32    21    16   ar
    33     7    11    1
    34     7    12    1
    35    13    14    1
@<TRIPOS>MOLECULE
*****
 32 35 0 0 0
SMALL
GASTEIGER

@<TRIPOS>ATOM
      1 N         141.0715  142.4652  167.7335 N.ar    1  UNL1       -0.3169
      2 C         140.4068  143.1551  168.8877 C.ar    1  UNL1        0.0779
      3 C         140.6163  142.3152  170.1127 C.ar    1  UNL1        0.0394
      4 C         141.4105  141.1063  169.7157 C.ar    1  UNL1        0.1041
      5 N         141.9138  139.9330  170.5031 N.ar    1  UNL1       -0.2124
      6 C         142.6986  138.8524  169.8200 C.ar    1  UNL1        0.2149
      7 N         143.2019  137.6791  170.6074 N.pl3   1  UNL1       -0.3274
      8 N         142.9800  138.9451  168.3496 N.ar    1  UNL1       -0.1977
      9 C         142.4766  140.1184  167.5622 C.ar    1  UNL1        0.1491
     10 C         141.6919  141.1990  168.2452 C.ar    1  UNL1        0.1101
     11 H         143.0172  137.6182  171.5725 H       1  UNL1        0.1452
     12 H         143.7169  136.9699  170.1591 H       1  UNL1        0.1452
     13 N         142.7580  140.2112  166.0917 N.pl3   1  UNL1       -0.3119
     14 H         142.6396  141.0677  165.6209 H       1  UNL1        0.1486
     15 C         143.2197  138.9988  165.3385 C.3     1  UNL1        0.1383
     16 C         142.3699  138.4286  164.2419 C.ar    1  UNL1        0.1201
     17 C         142.1633  139.0299  162.8833 C.ar    1  UNL1        0.0553
     18 C         141.2433  138.1298  162.1130 C.ar    1  UNL1        0.1546
     19 C         140.7686  138.3489  160.7071 C.3     1  UNL1        0.0754
     20 O         140.8813  136.9722  162.9954 O.2     1  UNL1       -0.3580
     21 N         141.5776  137.1567  164.3112 N.ar    1  UNL1       -0.0800
     22 C         141.1094  142.9555  166.3164 C.3     1  UNL1        0.1521
     23 C         138.1052  141.4378  163.3294 C.ar    1  UNL1        0.1916
     24 C         138.4171  142.9033  163.4010 C.ar    1  UNL1        0.0430
     25 C         139.4186  143.4091  164.3967 C.ar    1  UNL1        0.0200
     26 C         140.1080  142.4496  165.3208 C.ar    1  UNL1        0.0851
     27 N         139.7960  140.9841  165.2492 N.ar    1  UNL1       -0.2115
     28 C         138.7947  140.4783  164.2535 C.ar    1  UNL1        0.2598
     29 C         137.5703  140.2986  161.0566 C.3     1  UNL1        0.2527
     30 O         137.1039  140.9319  162.3338 O.3     1  UNL1       -0.4667
     31 O         138.4827  139.0128  164.1820 O.3     1  UNL1       -0.4541
     32 C         138.5061  138.1793  165.4288 C.3     1  UNL1        0.2543
@<TRIPOS>BOND
     1    29    30    1
     2    30    23    1
     3    23    24   ar
     4    24    25   ar
     5    25    26   ar
     6    26    22    1
     7    22     1    1
     8     1     2   ar
     9     2     3   ar
    10     3     4   ar
    11     4     5   ar
    12     5     6   ar
    13     6     7    1
    14     6     8   ar
    15     8     9   ar
    16     9    13    1
    17    13    15    1
    18    15    16    1
    19    16    17   ar
    20    17    18   ar
    21    18    19    1
    22    18    20   ar
    23    20    21   ar
    24     9    10   ar
    25    26    27   ar
    26    27    28   ar
    27    28    31    1
    28    31    32    1
    29    28    23   ar
    30    10     1   ar
    31    10     4   ar
    32    21    16   ar
    33     7    11    1
    34     7    12    1
    35    13    14    1
@<TRIPOS>MOLECULE
*****
 32 35 0 0 0
SMALL
GASTEIGER

@<TRIPOS>ATOM
      1 N         142.0753  141.4013  166.8434 N.ar    1  UNL1       -0.3169
      2 C         142.8703  142.2967  167.7469 C.ar    1  UNL1        0.0779
      3 C         142.2048  142.3076  169.0911 C.ar    1  UNL1        0.0394
      4 C         140.9986  141.4189  169.0184 C.ar    1  UNL1        0.1041
      5 N         139.9627  141.0474  170.0377 N.ar    1  UNL1       -0.2124
      6 C         138.8468  140.1157  169.6678 C.ar    1  UNL1        0.2149
      7 N         137.8110  139.7441  170.6871 N.pl3   1  UNL1       -0.3274
      8 N         138.7668  139.5556  168.2786 N.ar    1  UNL1       -0.1977
      9 C         139.8027  139.9271  167.2593 C.ar    1  UNL1        0.1491
     10 C         140.9185  140.8588  167.6292 C.ar    1  UNL1        0.1101
     11 H         137.8635  140.1118  171.5989 H       1  UNL1        0.1452
     12 H         137.0786  139.1327  170.4444 H       1  UNL1        0.1452
     13 N         139.7227  139.3670  165.8701 N.pl3   1  UNL1       -0.3119
     14 H         140.5272  138.9939  165.4427 H       1  UNL1        0.1486
     15 C         138.4168  139.3754  165.1321 C.3     1  UNL1        0.1383
     16 C         138.0651  140.5313  164.2431 C.ar    1  UNL1        0.1201
     17 C         138.2032  141.9841  164.5898 C.ar    1  UNL1        0.0553
     18 C         137.7371  142.7880  163.4123 C.ar    1  UNL1        0.1546
     19 C         137.7031  144.2850  163.3246 C.3     1  UNL1        0.0754
     20 O         137.3109  141.8320  162.3379 O.2     1  UNL1       -0.3580
     21 N         137.5136  140.4372  162.8513 N.ar    1  UNL1       -0.0800
     22 C         142.3831  141.1011  165.4063 C.3     1  UNL1        0.1521
     23 C         141.2565  144.0511  162.2003 C.ar    1  UNL1        0.1916
     24 C         141.5087  144.5254  163.6008 C.ar    1  UNL1        0.0430
     25 C         141.8842  143.5420  164.6695 C.ar    1  UNL1        0.0200
     26 C         142.0076  142.0844  164.3376 C.ar    1  UNL1        0.0851
     27 N         141.7553  141.6101  162.9371 N.ar    1  UNL1       -0.2115
     28 C         141.3798  142.5935  161.8685 C.ar    1  UNL1        0.2598
     29 C         139.9160  146.1415  161.4367 C.3     1  UNL1        0.2527
     30 O         140.8810  145.0344  161.1316 O.3     1  UNL1       -0.4667
     31 O         141.1276  142.1191  160.4679 O.3     1  UNL1       -0.4541
     32 C         139.9645  141.2169  160.1797 C.3     1  UNL1        0.2543
@<TRIPOS>BOND
     1    29    30    1
     2    30    23    1
     3    23    24   ar
     4    24    25   ar
     5    25    26   ar
     6    26    22    1
     7    22     1    1
     8     1     2   ar
     9     2     3   ar
    10     3     4   ar
    11     4     5   ar
    12     5     6   ar
    13     6     7    1
    14     6     8   ar
    15     8     9   ar
    16     9    13    1
    17    13    15    1
    18    15    16    1
    19    16    17   ar
    20    17    18   ar
    21    18    19    1
    22    18    20   ar
    23    20    21   ar
    24     9    10   ar
    25    26    27   ar
    26    27    28   ar
    27    28    31    1
    28    31    32    1
    29    28    23   ar
    30    10     1   ar
    31    10     4   ar
    32    21    16   ar
    33     7    11    1
    34     7    12    1
    35    13    14    1
@<TRIPOS>MOLECULE
*****
 32 35 0 0 0
SMALL
GASTEIGER

@<TRIPOS>ATOM
      1 N         142.2546  140.2111  167.6841 N.ar    1  UNL1       -0.3169
      2 C         142.7068  139.1337  168.6247 C.ar    1  UNL1        0.0779
      3 C         142.1293  139.4270  169.9776 C.ar    1  UNL1        0.0394
      4 C         141.3202  140.6858  169.8732 C.ar    1  UNL1        0.1041
      5 N         140.5229  141.4533  170.8858 N.ar    1  UNL1       -0.2124
      6 C         139.8030  142.7054  170.4809 C.ar    1  UNL1        0.2149
      7 N         139.0058  143.4730  171.4934 N.pl3   1  UNL1       -0.3274
      8 N         139.8804  143.1900  169.0634 N.ar    1  UNL1       -0.1977
      9 C         140.6777  142.4224  168.0508 C.ar    1  UNL1        0.1491
     10 C         141.3976  141.1704  168.4558 C.ar    1  UNL1        0.1101
     11 H         138.9550  143.1549  172.4237 H       1  UNL1        0.1452
     12 H         138.5333  144.2948  171.2276 H       1  UNL1        0.1452
     13 N         140.7551  142.9070  166.6334 N.pl3   1  UNL1       -0.3119
     14 H         141.5557  142.7195  166.0921 H       1  UNL1        0.1486
     15 C         139.6125  143.6774  166.0407 C.3     1  UNL1        0.1383
     16 C         139.6445  144.0720  164.5939 C.ar    1  UNL1        0.1201
     17 C         140.8608  144.1094  163.7168 C.ar    1  UNL1        0.0553
     18 C         140.4338  144.5590  162.3510 C.ar    1  UNL1        0.1546
     19 C         141.3296  144.7369  161.1612 C.3     1  UNL1        0.0754
     20 O         138.9535  144.7994  162.3839 O.2     1  UNL1       -0.3580
     21 N         138.4657  144.4984  163.7700 N.ar    1  UNL1       -0.0800
     22 C         142.5988  140.3117  166.2276 C.3     1  UNL1        0.1521
     23 C         139.8397  138.5551  163.1370 C.ar    1  UNL1        0.1916
     24 C         140.7685  137.6634  163.9066 C.ar    1  UNL1        0.0430
     25 C         141.6882  138.2490  164.9369 C.ar    1  UNL1        0.0200
     26 C         141.6791  139.7262  165.1974 C.ar    1  UNL1        0.0851
     27 N         140.7503  140.6178  164.4277 N.ar    1  UNL1       -0.2115
     28 C         139.8307  140.0323  163.3976 C.ar    1  UNL1        0.2598
     29 C         139.2221  138.1413  160.6476 C.3     1  UNL1        0.2527
     30 O         138.9200  137.9696  162.1068 O.3     1  UNL1       -0.4667
     31 O         138.9019  140.9239  162.6279 O.3     1  UNL1       -0.4541
     32 C         137.4839  141.1018  163.0834 C.3     1  UNL1        0.2543
@<TRIPOS>BOND
     1    29    30    1
     2    30    23    1
     3    23    24   ar
     4    24    25   ar
     5    25    26   ar
     6    26    22    1
     7    22     1    1
     8     1     2   ar
     9     2     3   ar
    10     3     4   ar
    11     4     5   ar
    12     5     6   ar
    13     6     7    1
    14     6     8   ar
    15     8     9   ar
    16     9    13    1
    17    13    15    1
    18    15    16    1
    19    16    17   ar
    20    17    18   ar
    21    18    19    1
    22    18    20   ar
    23    20    21   ar
    24     9    10   ar
    25    26    27   ar
    26    27    28   ar
    27    28    31    1
    28    31    32    1
    29    28    23   ar
    30    10     1   ar
    31    10     4   ar
    32    21    16   ar
    33     7    11    1
    34     7    12    1
    35    13    14    1
@<TRIPOS>MOLECULE
*****
 32 35 0 0 0
SMALL
GASTEIGER

@<TRIPOS>ATOM
      1 N         142.0511  141.9553  166.9071 N.ar    1  UNL1       -0.3169
      2 C         143.3008  142.4745  167.5543 C.ar    1  UNL1        0.0779
      3 C         143.2936  142.0409  168.9902 C.ar    1  UNL1        0.0394
      4 C         142.0395  141.2539  169.2306 C.ar    1  UNL1        0.1041
      5 N         141.4975  140.5785  170.4554 N.ar    1  UNL1       -0.2124
      6 C         140.1876  139.8502  170.3928 C.ar    1  UNL1        0.2149
      7 N         139.6457  139.1749  171.6176 N.pl3   1  UNL1       -0.3274
      8 N         139.4197  139.7973  169.1053 N.ar    1  UNL1       -0.1977
      9 C         139.9617  140.4727  167.8805 C.ar    1  UNL1        0.1491
     10 C         141.2715  141.2010  167.9431 C.ar    1  UNL1        0.1101
     11 H         140.1497  139.2096  172.4626 H       1  UNL1        0.1452
     12 H         138.7860  138.6969  171.5765 H       1  UNL1        0.1452
     13 N         139.1938  140.4198  166.5930 N.pl3   1  UNL1       -0.3119
     14 H         138.9971  141.2506  166.1027 H       1  UNL1        0.1486
     15 C         138.7256  139.1011  166.0527 C.3     1  UNL1        0.1383
     16 C         138.5626  138.9120  164.5736 C.ar    1  UNL1        0.1201
     17 C         138.0253  139.9270  163.6088 C.ar    1  UNL1        0.0553
     18 C         138.0390  139.3169  162.2385 C.ar    1  UNL1        0.1546
     19 C         137.5863  139.9821  160.9727 C.3     1  UNL1        0.0754
     20 O         138.5848  137.9247  162.3565 O.2     1  UNL1       -0.3580
     21 N         138.9085  137.6744  163.7996 N.ar    1  UNL1       -0.0800
     22 C         141.6511  142.1554  165.4753 C.3     1  UNL1        0.1521
     23 C         142.0764  138.7817  162.5279 C.ar    1  UNL1        0.1916
     24 C         142.5015  138.5901  163.9536 C.ar    1  UNL1        0.0430
     25 C         142.3597  139.7148  164.9361 C.ar    1  UNL1        0.0200
     26 C         141.7929  141.0309  164.4929 C.ar    1  UNL1        0.0851
     27 N         141.3678  141.2224  163.0671 N.ar    1  UNL1       -0.2115
     28 C         141.5096  140.0978  162.0847 C.ar    1  UNL1        0.2598
     29 C         143.3555  137.6547  160.5674 C.3     1  UNL1        0.2527
     30 O         142.2182  137.6572  161.5454 O.3     1  UNL1       -0.4667
     31 O         141.0845  140.2894  160.6590 O.3     1  UNL1       -0.4541
     32 C         140.8867  141.6732  160.1149 C.3     1  UNL1        0.2543
@<TRIPOS>BOND
     1    29    30    1
     2    30    23    1
     3    23    24   ar
     4    24    25   ar
     5    25    26   ar
     6    26    22    1
     7    22     1    1
     8     1     2   ar
     9     2     3   ar
    10     3     4   ar
    11     4     5   ar
    12     5     6   ar
    13     6     7    1
    14     6     8   ar
    15     8     9   ar
    16     9    13    1
    17    13    15    1
    18    15    16    1
    19    16    17   ar
    20    17    18   ar
    21    18    19    1
    22    18    20   ar
    23    20    21   ar
    24     9    10   ar
    25    26    27   ar
    26    27    28   ar
    27    28    31    1
    28    31    32    1
    29    28    23   ar
    30    10     1   ar
    31    10     4   ar
    32    21    16   ar
    33     7    11    1
    34     7    12    1
    35    13    14    1
