@<TRIPOS>MOLECULE
*****
 38 42 0 0 0
SMALL
GASTEIGER

@<TRIPOS>ATOM
      1 C         140.0193  139.5924  159.6913 C.ar    1  UNL1        0.1740
      2 N         140.6686  138.4901  158.9082 N.ar    1  UNL1       -0.2259
      3 C         140.7132  138.5598  157.4105 C.ar    1  UNL1        0.0830
      4 C         140.1085  139.7318  156.6958 C.ar    1  UNL1        0.0199
      5 C         139.4592  140.8341  157.4789 C.ar    1  UNL1        0.0141
      6 C         139.4146  140.7645  158.9765 C.ar    1  UNL1        0.1042
      7 C         143.1266  141.2775  162.6213 C.ar    1  UNL1        0.2089
      8 N         142.4365  140.8470  163.8816 N.ar    1  UNL1       -0.1500
      9 N         141.1718  140.1373  163.4985 N.ar    1  UNL1       -0.2060
     10 C         141.0802  140.1292  162.0013 C.ar    1  UNL1        0.1983
     11 N         139.9746  139.5228  161.1889 N.2     1  UNL1       -0.2011
     12 S         142.2883  140.8338  161.4592 S.2     1  UNL1       -0.0214
     13 C         140.1739  139.5405  164.4462 C.ar    1  UNL1        0.0849
     14 C         139.8393  138.0808  164.3618 C.ar    1  UNL1        0.0189
     15 C         138.8414  137.4841  165.3095 C.ar    1  UNL1       -0.0027
     16 C         138.1781  138.3471  166.3416 C.ar    1  UNL1       -0.0218
     17 C         137.1802  137.7503  167.2893 C.3     1  UNL1        0.0310
     18 C         138.5127  139.8068  166.4260 C.ar    1  UNL1       -0.0027
     19 C         139.5106  140.4035  165.4783 C.ar    1  UNL1        0.0189
     20 C         144.4266  142.0211  162.5377 C.2     1  UNL1        0.3673
     21 O         145.7123  141.3235  162.8702 O.2     1  UNL1       -0.2425
     22 O         144.4410  143.4621  162.1216 O.3     1  UNL1       -0.4440
     23 C         143.6385  145.1069  163.9658 C.3     1  UNL1        0.0513
     24 C         143.4082  144.4081  162.6586 C.3     1  UNL1        0.2090
     25 C         141.3625  137.4574  156.6274 C.ar    1  UNL1        0.0177
     26 C         140.5458  136.6282  155.6810 C.ar    1  UNL1        0.0015
     27 C         141.1951  135.5259  154.8979 C.ar    1  UNL1        0.0000
     28 C         142.6610  135.2527  155.0611 C.ar    1  UNL1        0.0000
     29 C         143.4776  136.0819  156.0074 C.ar    1  UNL1        0.0000
     30 C         142.8284  137.1843  156.7906 C.ar    1  UNL1        0.0015
     31 C         138.8546  142.0062  156.7642 C.ar    1  UNL1        0.0008
     32 C         137.4106  141.9743  156.3593 C.ar    1  UNL1        0.0000
     33 C         136.8060  143.1464  155.6447 C.ar    1  UNL1        0.0000
     34 C         137.6454  144.3503  155.3348 C.ar    1  UNL1        0.0000
     35 C         139.0894  144.3821  155.7397 C.ar    1  UNL1        0.0000
     36 C         139.6940  143.2101  156.4544 C.ar    1  UNL1        0.0000
     37 C         138.7653  141.8669  159.7597 C.1     1  UNL1        0.1035
     38 N         138.1159  142.9692  160.5427 N.1     1  UNL1       -0.1907
@<TRIPOS>BOND
     1    23    24    1
     2    24    22    1
     3    22    20    1
     4    20    21    2
     5    20     7    1
     6     7     8   ar
     7     8     9   ar
     8     9    13    1
     9    13    14   ar
    10    14    15   ar
    11    15    16   ar
    12    16    17    1
    13    16    18   ar
    14    18    19   ar
    15     9    10   ar
    16    10    11    2
    17    11     1    1
    18     1     2   ar
    19     2     3   ar
    20     3    25    1
    21    25    26   ar
    22    26    27   ar
    23    27    28   ar
    24    28    29   ar
    25    29    30   ar
    26     3     4   ar
    27     4     5   ar
    28     5    31    1
    29    31    32   ar
    30    32    33   ar
    31    33    34   ar
    32    34    35   ar
    33    35    36   ar
    34     5     6   ar
    35     6    37    1
    36    37    38    3
    37    10    12   ar
    38    12     7   ar
    39    19    13   ar
    40     6     1   ar
    41    30    25   ar
    42    36    31   ar
@<TRIPOS>MOLECULE
*****
 38 42 0 0 0
SMALL
GASTEIGER

@<TRIPOS>ATOM
      1 C         140.7916  139.4313  161.2937 C.ar    1  UNL1        0.1740
      2 N         139.9780  138.8138  162.3923 N.ar    1  UNL1       -0.2259
      3 C         139.8899  139.4874  163.7297 C.ar    1  UNL1        0.0830
      4 C         140.6153  140.7784  163.9685 C.ar    1  UNL1        0.0199
      5 C         141.4289  141.3958  162.8700 C.ar    1  UNL1        0.0141
      6 C         141.5171  140.7223  161.5327 C.ar    1  UNL1        0.1042
      7 C         138.1790  140.2656  157.6116 C.ar    1  UNL1        0.2089
      8 N         138.8221  139.2594  156.7038 N.ar    1  UNL1       -0.1500
      9 N         139.9121  138.5722  157.4716 N.ar    1  UNL1       -0.2060
     10 C         139.9427  139.1535  158.8540 C.ar    1  UNL1        0.1983
     11 N         140.8798  138.7579  159.9564 N.2     1  UNL1       -0.2011
     12 S         138.8716  140.2001  158.9406 S.2     1  UNL1       -0.0214
     13 C         140.8133  137.4929  156.9488 C.ar    1  UNL1        0.0849
     14 C         140.3255  136.5614  155.8792 C.ar    1  UNL1        0.0189
     15 C         141.2267  135.4822  155.3564 C.ar    1  UNL1       -0.0027
     16 C         142.6156  135.3347  155.9033 C.ar    1  UNL1       -0.0218
     17 C         143.5168  134.2555  155.3805 C.3     1  UNL1        0.0310
     18 C         143.1034  136.2662  156.9730 C.ar    1  UNL1       -0.0027
     19 C         142.2022  137.3454  157.4957 C.ar    1  UNL1        0.0189
     20 C         137.0429  141.1771  157.2534 C.2     1  UNL1        0.3673
     21 O         137.2427  142.6637  157.2622 O.2     1  UNL1       -0.2425
     22 O         135.7070  140.6020  156.8864 O.3     1  UNL1       -0.4440
     23 C         133.8749  140.9045  155.0693 C.3     1  UNL1        0.0513
     24 C         135.2821  140.5500  155.4488 C.3     1  UNL1        0.2090
     25 C         139.0762  138.8699  164.8282 C.ar    1  UNL1        0.0177
     26 C         138.5159  139.7310  165.9212 C.ar    1  UNL1        0.0015
     27 C         137.7023  139.1136  167.0197 C.ar    1  UNL1        0.0000
     28 C         137.4490  137.6351  167.0253 C.ar    1  UNL1        0.0000
     29 C         138.0093  136.7741  165.9323 C.ar    1  UNL1        0.0000
     30 C         138.8230  137.3915  164.8337 C.ar    1  UNL1        0.0015
     31 C         142.1544  142.6869  163.1089 C.ar    1  UNL1        0.0008
     32 C         143.6194  142.6756  163.4308 C.ar    1  UNL1        0.0000
     33 C         144.3448  143.9666  163.6697 C.ar    1  UNL1        0.0000
     34 C         143.6051  145.2689  163.5868 C.ar    1  UNL1        0.0000
     35 C         142.1401  145.2802  163.2649 C.ar    1  UNL1        0.0000
     36 C         141.4147  143.9892  163.0260 C.ar    1  UNL1        0.0000
     37 C         142.3308  141.3398  160.4341 C.1     1  UNL1        0.1035
     38 N         143.1444  141.9573  159.3356 N.1     1  UNL1       -0.1907
@<TRIPOS>BOND
     1    23    24    1
     2    24    22    1
     3    22    20    1
     4    20    21    2
     5    20     7    1
     6     7     8   ar
     7     8     9   ar
     8     9    13    1
     9    13    14   ar
    10    14    15   ar
    11    15    16   ar
    12    16    17    1
    13    16    18   ar
    14    18    19   ar
    15     9    10   ar
    16    10    11    2
    17    11     1    1
    18     1     2   ar
    19     2     3   ar
    20     3    25    1
    21    25    26   ar
    22    26    27   ar
    23    27    28   ar
    24    28    29   ar
    25    29    30   ar
    26     3     4   ar
    27     4     5   ar
    28     5    31    1
    29    31    32   ar
    30    32    33   ar
    31    33    34   ar
    32    34    35   ar
    33    35    36   ar
    34     5     6   ar
    35     6    37    1
    36    37    38    3
    37    10    12   ar
    38    12     7   ar
    39    19    13   ar
    40     6     1   ar
    41    30    25   ar
    42    36    31   ar
@<TRIPOS>MOLECULE
*****
 38 42 0 0 0
SMALL
GASTEIGER

@<TRIPOS>ATOM
      1 C         139.8132  139.4276  159.3413 C.ar    1  UNL1        0.1740
      2 N         138.7632  140.0954  158.5039 N.ar    1  UNL1       -0.2259
      3 C         138.8355  140.0174  157.0076 C.ar    1  UNL1        0.0830
      4 C         139.9579  139.2716  156.3489 C.ar    1  UNL1        0.0199
      5 C         141.0080  138.6039  157.1863 C.ar    1  UNL1        0.0141
      6 C         140.9357  138.6818  158.6825 C.ar    1  UNL1        0.1042
      7 C         142.2038  142.2398  162.0720 C.ar    1  UNL1        0.2089
      8 N         141.6259  141.7622  163.3713 N.ar    1  UNL1       -0.1500
      9 N         140.6330  140.6798  163.0669 N.ar    1  UNL1       -0.2060
     10 C         140.5972  140.4884  161.5796 C.ar    1  UNL1        0.1983
     11 N         139.7410  139.5056  160.8375 N.2     1  UNL1       -0.2011
     12 S         141.5680  141.4525  160.9647 S.2     1  UNL1       -0.0214
     13 C         139.8189  139.9218  164.0733 C.ar    1  UNL1        0.0849
     14 C         138.9555  140.6628  165.0508 C.ar    1  UNL1        0.0189
     15 C         138.1414  139.9048  166.0571 C.ar    1  UNL1       -0.0027
     16 C         138.1907  138.4059  166.0859 C.ar    1  UNL1       -0.0218
     17 C         137.3765  137.6480  167.0923 C.3     1  UNL1        0.0310
     18 C         139.0540  137.6650  165.1084 C.ar    1  UNL1       -0.0027
     19 C         139.8681  138.4229  164.1021 C.ar    1  UNL1        0.0189
     20 C         143.2361  143.3157  161.9088 C.2     1  UNL1        0.3673
     21 O         142.8141  144.7520  161.8150 O.2     1  UNL1       -0.2425
     22 O         144.6905  142.9553  161.8393 O.3     1  UNL1       -0.4440
     23 C         145.6961  141.6418  163.8427 C.3     1  UNL1        0.0513
     24 C         145.1733  141.6670  162.4369 C.3     1  UNL1        0.2090
     25 C         137.7854  140.6852  156.1702 C.ar    1  UNL1        0.0177
     26 C         137.4862  142.1423  156.3640 C.ar    1  UNL1        0.0015
     27 C         136.4361  142.8101  155.5265 C.ar    1  UNL1        0.0000
     28 C         135.6852  142.0209  154.4952 C.ar    1  UNL1        0.0000
     29 C         135.9845  140.5639  154.3015 C.ar    1  UNL1        0.0000
     30 C         137.0346  139.8960  155.1389 C.ar    1  UNL1        0.0015
     31 C         142.1304  137.8580  156.5275 C.ar    1  UNL1        0.0008
     32 C         142.0670  136.3646  156.4023 C.ar    1  UNL1        0.0000
     33 C         143.1895  135.6189  155.7434 C.ar    1  UNL1        0.0000
     34 C         144.3753  136.3666  155.2098 C.ar    1  UNL1        0.0000
     35 C         144.4387  137.8601  155.3351 C.ar    1  UNL1        0.0000
     36 C         143.3162  138.6058  155.9939 C.ar    1  UNL1        0.0000
     37 C         141.9858  138.0140  159.5200 C.1     1  UNL1        0.1035
     38 N         143.0359  137.3462  160.3574 N.1     1  UNL1       -0.1907
@<TRIPOS>BOND
     1    23    24    1
     2    24    22    1
     3    22    20    1
     4    20    21    2
     5    20     7    1
     6     7     8   ar
     7     8     9   ar
     8     9    13    1
     9    13    14   ar
    10    14    15   ar
    11    15    16   ar
    12    16    17    1
    13    16    18   ar
    14    18    19   ar
    15     9    10   ar
    16    10    11    2
    17    11     1    1
    18     1     2   ar
    19     2     3   ar
    20     3    25    1
    21    25    26   ar
    22    26    27   ar
    23    27    28   ar
    24    28    29   ar
    25    29    30   ar
    26     3     4   ar
    27     4     5   ar
    28     5    31    1
    29    31    32   ar
    30    32    33   ar
    31    33    34   ar
    32    34    35   ar
    33    35    36   ar
    34     5     6   ar
    35     6    37    1
    36    37    38    3
    37    10    12   ar
    38    12     7   ar
    39    19    13   ar
    40     6     1   ar
    41    30    25   ar
    42    36    31   ar
@<TRIPOS>MOLECULE
*****
 38 42 0 0 0
SMALL
GASTEIGER

@<TRIPOS>ATOM
      1 C         144.6523  141.2871  157.6265 C.ar    1  UNL1        0.1740
      2 N         145.8339  141.8853  156.9223 N.ar    1  UNL1       -0.2259
      3 C         146.3328  141.2770  155.6451 C.ar    1  UNL1        0.0830
      4 C         145.6502  140.0705  155.0722 C.ar    1  UNL1        0.0199
      5 C         144.4686  139.4723  155.7764 C.ar    1  UNL1        0.0141
      6 C         143.9696  140.0805  157.0534 C.ar    1  UNL1        0.1042
      7 C         141.8118  144.8697  158.0460 C.ar    1  UNL1        0.2089
      8 N         141.7726  144.8929  159.5453 N.ar    1  UNL1       -0.1500
      9 N         142.6450  143.7814  160.0491 N.ar    1  UNL1       -0.2060
     10 C         143.2233  143.0714  158.8611 C.ar    1  UNL1        0.1983
     11 N         144.1533  141.8952  158.9036 N.2     1  UNL1       -0.2011
     12 S         142.7084  143.7440  157.6232 S.2     1  UNL1       -0.0214
     13 C         142.8950  143.4400  161.4882 C.ar    1  UNL1        0.0849
     14 C         144.2745  143.5733  162.0619 C.ar    1  UNL1        0.0189
     15 C         144.5245  143.2319  163.5009 C.ar    1  UNL1       -0.0027
     16 C         143.3950  142.7572  164.3663 C.ar    1  UNL1       -0.0218
     17 C         143.6451  142.4158  165.8054 C.3     1  UNL1        0.0310
     18 C         142.0155  142.6239  163.7926 C.ar    1  UNL1       -0.0027
     19 C         141.7655  142.9653  162.3536 C.ar    1  UNL1        0.0189
     20 C         141.0825  145.8076  157.1304 C.2     1  UNL1        0.3673
     21 O         139.8905  146.5685  157.6306 O.2     1  UNL1       -0.2425
     22 O         141.5452  145.9847  155.7146 O.3     1  UNL1       -0.4440
     23 C         140.1481  147.6420  154.2822 C.3     1  UNL1        0.0513
     24 C         140.5457  146.2368  154.6249 C.3     1  UNL1        0.2090
     25 C         147.5145  141.8753  154.9409 C.ar    1  UNL1        0.0177
     26 C         147.3053  142.8671  153.8351 C.ar    1  UNL1        0.0015
     27 C         148.4869  143.4653  153.1310 C.ar    1  UNL1        0.0000
     28 C         149.8777  143.0718  153.5325 C.ar    1  UNL1        0.0000
     29 C         150.0867  142.0801  154.6382 C.ar    1  UNL1        0.0000
     30 C         148.9051  141.4817  155.3425 C.ar    1  UNL1        0.0015
     31 C         143.7859  138.2657  155.2034 C.ar    1  UNL1        0.0008
     32 C         144.2088  136.8913  155.6300 C.ar    1  UNL1        0.0000
     33 C         143.5261  135.6848  155.0570 C.ar    1  UNL1        0.0000
     34 C         142.4205  135.8528  154.0573 C.ar    1  UNL1        0.0000
     35 C         141.9977  137.2273  153.6306 C.ar    1  UNL1        0.0000
     36 C         142.6803  138.4337  154.2036 C.ar    1  UNL1        0.0000
     37 C         142.7880  139.4822  157.7577 C.1     1  UNL1        0.1035
     38 N         141.6063  138.8840  158.4618 N.1     1  UNL1       -0.1907
@<TRIPOS>BOND
     1    23    24    1
     2    24    22    1
     3    22    20    1
     4    20    21    2
     5    20     7    1
     6     7     8   ar
     7     8     9   ar
     8     9    13    1
     9    13    14   ar
    10    14    15   ar
    11    15    16   ar
    12    16    17    1
    13    16    18   ar
    14    18    19   ar
    15     9    10   ar
    16    10    11    2
    17    11     1    1
    18     1     2   ar
    19     2     3   ar
    20     3    25    1
    21    25    26   ar
    22    26    27   ar
    23    27    28   ar
    24    28    29   ar
    25    29    30   ar
    26     3     4   ar
    27     4     5   ar
    28     5    31    1
    29    31    32   ar
    30    32    33   ar
    31    33    34   ar
    32    34    35   ar
    33    35    36   ar
    34     5     6   ar
    35     6    37    1
    36    37    38    3
    37    10    12   ar
    38    12     7   ar
    39    19    13   ar
    40     6     1   ar
    41    30    25   ar
    42    36    31   ar
@<TRIPOS>MOLECULE
*****
 38 42 0 0 0
SMALL
GASTEIGER

@<TRIPOS>ATOM
      1 C         139.6051  139.3626  159.0617 C.ar    1  UNL1        0.1740
      2 N         138.5350  139.9154  158.1678 N.ar    1  UNL1       -0.2259
      3 C         138.6187  139.7130  156.6839 C.ar    1  UNL1        0.0830
      4 C         139.7725  138.9576  156.0939 C.ar    1  UNL1        0.0199
      5 C         140.8426  138.4048  156.9878 C.ar    1  UNL1        0.0141
      6 C         140.7590  138.6072  158.4717 C.ar    1  UNL1        0.1042
      7 C         141.4376  142.8087  161.4796 C.ar    1  UNL1        0.2089
      8 N         140.9596  142.3561  162.8275 N.ar    1  UNL1       -0.1500
      9 N         140.1836  141.0859  162.6416 N.ar    1  UNL1       -0.2060
     10 C         140.1820  140.7534  161.1790 C.ar    1  UNL1        0.1983
     11 N         139.5215  139.5650  160.5456 N.2     1  UNL1       -0.2011
     12 S         140.9570  141.8181  160.4608 S.2     1  UNL1       -0.0214
     13 C         139.5249  140.2882  163.7279 C.ar    1  UNL1        0.0849
     14 C         138.7154  140.9826  164.7826 C.ar    1  UNL1        0.0189
     15 C         138.0568  140.1849  165.8688 C.ar    1  UNL1       -0.0027
     16 C         138.2076  138.6928  165.9002 C.ar    1  UNL1       -0.0218
     17 C         137.5488  137.8951  166.9864 C.3     1  UNL1        0.0310
     18 C         139.0170  137.9984  164.8454 C.ar    1  UNL1       -0.0027
     19 C         139.6757  138.7961  163.7593 C.ar    1  UNL1        0.0189
     20 C         142.2529  144.0362  161.1997 C.2     1  UNL1        0.3673
     21 O         143.6422  144.1558  161.7524 O.2     1  UNL1       -0.2425
     22 O         141.6789  145.1441  160.3672 O.3     1  UNL1       -0.4440
     23 C         139.8143  146.1814  161.8495 C.3     1  UNL1        0.0513
     24 C         140.2503  145.5608  160.5554 C.3     1  UNL1        0.2090
     25 C         137.5485  140.2659  155.7900 C.ar    1  UNL1        0.0177
     26 C         137.4144  139.7650  154.3824 C.ar    1  UNL1        0.0015
     27 C         136.3443  140.3179  153.4884 C.ar    1  UNL1        0.0000
     28 C         135.4083  141.3716  154.0020 C.ar    1  UNL1        0.0000
     29 C         135.5424  141.8724  155.4095 C.ar    1  UNL1        0.0000
     30 C         136.6126  141.3195  156.3036 C.ar    1  UNL1        0.0015
     31 C         141.9965  137.6494  156.3978 C.ar    1  UNL1        0.0008
     32 C         143.1964  138.3911  155.8879 C.ar    1  UNL1        0.0000
     33 C         144.3502  137.6357  155.2978 C.ar    1  UNL1        0.0000
     34 C         144.3041  136.1386  155.2177 C.ar    1  UNL1        0.0000
     35 C         143.1041  135.3969  155.7276 C.ar    1  UNL1        0.0000
     36 C         141.9503  136.1523  156.3176 C.ar    1  UNL1        0.0000
     37 C         141.8292  138.0543  159.3656 C.1     1  UNL1        0.1035
     38 N         142.8993  137.5014  160.2596 N.1     1  UNL1       -0.1907
@<TRIPOS>BOND
     1    23    24    1
     2    24    22    1
     3    22    20    1
     4    20    21    2
     5    20     7    1
     6     7     8   ar
     7     8     9   ar
     8     9    13    1
     9    13    14   ar
    10    14    15   ar
    11    15    16   ar
    12    16    17    1
    13    16    18   ar
    14    18    19   ar
    15     9    10   ar
    16    10    11    2
    17    11     1    1
    18     1     2   ar
    19     2     3   ar
    20     3    25    1
    21    25    26   ar
    22    26    27   ar
    23    27    28   ar
    24    28    29   ar
    25    29    30   ar
    26     3     4   ar
    27     4     5   ar
    28     5    31    1
    29    31    32   ar
    30    32    33   ar
    31    33    34   ar
    32    34    35   ar
    33    35    36   ar
    34     5     6   ar
    35     6    37    1
    36    37    38    3
    37    10    12   ar
    38    12     7   ar
    39    19    13   ar
    40     6     1   ar
    41    30    25   ar
    42    36    31   ar
@<TRIPOS>MOLECULE
*****
 38 42 0 0 0
SMALL
GASTEIGER

@<TRIPOS>ATOM
      1 C         141.6505  144.9913  158.0445 C.ar    1  UNL1        0.1740
      2 N         142.6686  144.2005  157.2777 N.ar    1  UNL1       -0.2259
      3 C         143.5081  143.1760  157.9818 C.ar    1  UNL1        0.0830
      4 C         143.3294  142.9422  159.4526 C.ar    1  UNL1        0.0199
      5 C         142.3112  143.7330  160.2194 C.ar    1  UNL1        0.0141
      6 C         141.4718  144.7574  159.5154 C.ar    1  UNL1        0.1042
      7 C         138.0694  144.1936  155.2842 C.ar    1  UNL1        0.2089
      8 N         137.7588  145.6280  154.9743 N.ar    1  UNL1       -0.1500
      9 N         138.7480  146.4852  155.7069 N.ar    1  UNL1       -0.2060
     10 C         139.6700  145.5806  156.4696 C.ar    1  UNL1        0.1983
     11 N         140.8110  146.0158  157.3406 N.2     1  UNL1       -0.2011
     12 S         139.2506  144.1643  156.2084 S.2     1  UNL1       -0.0214
     13 C         138.8052  147.9839  155.6813 C.ar    1  UNL1        0.0849
     14 C         139.3069  148.6946  154.4594 C.ar    1  UNL1        0.0189
     15 C         139.3641  150.1932  154.4338 C.ar    1  UNL1       -0.0027
     16 C         138.9196  150.9812  155.6302 C.ar    1  UNL1       -0.0218
     17 C         138.9768  152.4800  155.6046 C.3     1  UNL1        0.0310
     18 C         138.4179  150.2706  156.8522 C.ar    1  UNL1       -0.0027
     19 C         138.3607  148.7720  156.8778 C.ar    1  UNL1        0.0189
     20 C         137.3288  142.9984  154.7617 C.2     1  UNL1        0.3673
     21 O         137.7812  142.3295  153.4976 O.2     1  UNL1       -0.2425
     22 O         136.1360  142.4720  155.5034 O.3     1  UNL1       -0.4440
     23 C         137.6369  140.7242  156.7044 C.3     1  UNL1        0.0513
     24 C         136.2760  141.2744  156.3956 C.3     1  UNL1        0.2090
     25 C         144.5263  142.3853  157.2150 C.ar    1  UNL1        0.0177
     26 C         145.9598  142.8269  157.1959 C.ar    1  UNL1        0.0015
     27 C         146.9779  142.0361  156.4291 C.ar    1  UNL1        0.0000
     28 C         146.5628  140.8038  155.6813 C.ar    1  UNL1        0.0000
     29 C         145.1294  140.3623  155.7004 C.ar    1  UNL1        0.0000
     30 C         144.1111  141.1530  156.4672 C.ar    1  UNL1        0.0015
     31 C         142.1326  143.4992  161.6903 C.ar    1  UNL1        0.0008
     32 C         142.9103  144.3156  162.6795 C.ar    1  UNL1        0.0000
     33 C         142.7316  144.0818  164.1504 C.ar    1  UNL1        0.0000
     34 C         141.7752  143.0314  164.6320 C.ar    1  UNL1        0.0000
     35 C         140.9974  142.2150  163.6428 C.ar    1  UNL1        0.0000
     36 C         141.1761  142.4488  162.1720 C.ar    1  UNL1        0.0000
     37 C         140.4536  145.5482  160.2823 C.1     1  UNL1        0.1035
     38 N         139.4354  146.3390  161.0492 N.1     1  UNL1       -0.1907
@<TRIPOS>BOND
     1    23    24    1
     2    24    22    1
     3    22    20    1
     4    20    21    2
     5    20     7    1
     6     7     8   ar
     7     8     9   ar
     8     9    13    1
     9    13    14   ar
    10    14    15   ar
    11    15    16   ar
    12    16    17    1
    13    16    18   ar
    14    18    19   ar
    15     9    10   ar
    16    10    11    2
    17    11     1    1
    18     1     2   ar
    19     2     3   ar
    20     3    25    1
    21    25    26   ar
    22    26    27   ar
    23    27    28   ar
    24    28    29   ar
    25    29    30   ar
    26     3     4   ar
    27     4     5   ar
    28     5    31    1
    29    31    32   ar
    30    32    33   ar
    31    33    34   ar
    32    34    35   ar
    33    35    36   ar
    34     5     6   ar
    35     6    37    1
    36    37    38    3
    37    10    12   ar
    38    12     7   ar
    39    19    13   ar
    40     6     1   ar
    41    30    25   ar
    42    36    31   ar
@<TRIPOS>MOLECULE
*****
 38 42 0 0 0
SMALL
GASTEIGER

@<TRIPOS>ATOM
      1 C         141.4103  142.6666  157.7474 C.ar    1  UNL1        0.1740
      2 N         141.0713  143.7661  156.7849 N.ar    1  UNL1       -0.2259
      3 C         140.5309  145.0691  157.2949 C.ar    1  UNL1        0.0830
      4 C         140.3296  145.2727  158.7673 C.ar    1  UNL1        0.0199
      5 C         140.6685  144.1733  159.7297 C.ar    1  UNL1        0.0141
      6 C         141.2089  142.8703  159.2198 C.ar    1  UNL1        0.1042
      7 C         145.7754  141.7221  156.6830 C.ar    1  UNL1        0.2089
      8 N         145.5546  140.2978  156.2676 N.ar    1  UNL1       -0.1500
      9 N         144.0949  139.9901  156.4248 N.ar    1  UNL1       -0.2060
     10 C         143.4136  141.2242  156.9373 C.ar    1  UNL1        0.1983
     11 N         141.9506  141.3636  157.2375 N.2     1  UNL1       -0.2011
     12 S         144.4522  142.2947  157.0969 S.2     1  UNL1       -0.0214
     13 C         143.4327  138.6785  156.1224 C.ar    1  UNL1        0.0849
     14 C         142.8821  137.8414  157.2387 C.ar    1  UNL1        0.0189
     15 C         142.2200  136.5299  156.9363 C.ar    1  UNL1       -0.0027
     16 C         142.1086  136.0554  155.5177 C.ar    1  UNL1       -0.0218
     17 C         141.4464  134.7438  155.2154 C.3     1  UNL1        0.0310
     18 C         142.6592  136.8925  154.4015 C.ar    1  UNL1       -0.0027
     19 C         143.3212  138.2040  154.7038 C.ar    1  UNL1        0.0189
     20 C         147.0889  142.4465  156.6843 C.2     1  UNL1        0.3673
     21 O         147.5304  143.1967  157.9059 O.2     1  UNL1       -0.2425
     22 O         147.9607  142.4209  155.4640 O.3     1  UNL1       -0.4440
     23 C         150.4657  141.9859  154.9291 C.3     1  UNL1        0.0513
     24 C         149.1316  141.4857  155.3983 C.3     1  UNL1        0.2090
     25 C         140.1920  146.1686  156.3325 C.ar    1  UNL1        0.0177
     26 C         139.2193  147.2394  156.7295 C.ar    1  UNL1        0.0015
     27 C         138.8803  148.3388  155.7671 C.ar    1  UNL1        0.0000
     28 C         139.5139  148.3676  154.4077 C.ar    1  UNL1        0.0000
     29 C         140.4865  147.2969  154.0108 C.ar    1  UNL1        0.0000
     30 C         140.8256  146.1973  154.9732 C.ar    1  UNL1        0.0015
     31 C         140.4671  144.3770  161.2022 C.ar    1  UNL1        0.0008
     32 C         139.1312  144.0938  161.8228 C.ar    1  UNL1        0.0000
     33 C         138.9299  144.2975  163.2952 C.ar    1  UNL1        0.0000
     34 C         140.0645  144.7843  164.1470 C.ar    1  UNL1        0.0000
     35 C         141.4004  145.0675  163.5264 C.ar    1  UNL1        0.0000
     36 C         141.6017  144.8638  162.0540 C.ar    1  UNL1        0.0000
     37 C         141.5478  141.7708  160.1823 C.1     1  UNL1        0.1035
     38 N         141.8868  140.6713  161.1448 N.1     1  UNL1       -0.1907
@<TRIPOS>BOND
     1    23    24    1
     2    24    22    1
     3    22    20    1
     4    20    21    2
     5    20     7    1
     6     7     8   ar
     7     8     9   ar
     8     9    13    1
     9    13    14   ar
    10    14    15   ar
    11    15    16   ar
    12    16    17    1
    13    16    18   ar
    14    18    19   ar
    15     9    10   ar
    16    10    11    2
    17    11     1    1
    18     1     2   ar
    19     2     3   ar
    20     3    25    1
    21    25    26   ar
    22    26    27   ar
    23    27    28   ar
    24    28    29   ar
    25    29    30   ar
    26     3     4   ar
    27     4     5   ar
    28     5    31    1
    29    31    32   ar
    30    32    33   ar
    31    33    34   ar
    32    34    35   ar
    33    35    36   ar
    34     5     6   ar
    35     6    37    1
    36    37    38    3
    37    10    12   ar
    38    12     7   ar
    39    19    13   ar
    40     6     1   ar
    41    30    25   ar
    42    36    31   ar
@<TRIPOS>MOLECULE
*****
 38 42 0 0 0
SMALL
GASTEIGER

@<TRIPOS>ATOM
      1 C         143.2168  139.1758  158.6487 C.ar    1  UNL1        0.1740
      2 N         142.7717  137.9624  157.8875 N.ar    1  UNL1       -0.2259
      3 C         143.0346  137.8632  156.4140 C.ar    1  UNL1        0.0830
      4 C         143.7426  138.9774  155.7018 C.ar    1  UNL1        0.0199
      5 C         144.1877  140.1908  156.4630 C.ar    1  UNL1        0.0141
      6 C         143.9248  140.2900  157.9364 C.ar    1  UNL1        0.1042
      7 C         139.9797  141.6997  160.7056 C.ar    1  UNL1        0.2089
      8 N         140.3146  141.3075  162.1141 N.ar    1  UNL1       -0.1500
      9 N         141.4696  140.3515  162.0670 N.ar    1  UNL1       -0.2060
     10 C         141.8484  140.1529  160.6293 C.ar    1  UNL1        0.1983
     11 N         142.9540  139.2751  160.1221 N.2     1  UNL1       -0.2011
     12 S         140.9277  140.9861  159.7879 S.2     1  UNL1       -0.0214
     13 C         142.1297  139.7073  163.2500 C.ar    1  UNL1        0.0849
     14 C         141.4135  138.6356  164.0170 C.ar    1  UNL1        0.0189
     15 C         142.0737  137.9914  165.1999 C.ar    1  UNL1       -0.0027
     16 C         143.4500  138.4190  165.6157 C.ar    1  UNL1       -0.0218
     17 C         144.1101  137.7748  166.7986 C.3     1  UNL1        0.0310
     18 C         144.1662  139.4908  164.8487 C.ar    1  UNL1       -0.0027
     19 C         143.5060  140.1349  163.6658 C.ar    1  UNL1        0.0189
     20 C         138.8884  142.6403  160.2880 C.2     1  UNL1        0.3673
     21 O         138.9719  143.3469  158.9675 O.2     1  UNL1       -0.2425
     22 O         137.7137  142.8744  161.1910 O.3     1  UNL1       -0.4440
     23 C         138.9493  144.7088  162.5542 C.3     1  UNL1        0.0513
     24 C         137.8875  143.6534  162.4610 C.3     1  UNL1        0.2090
     25 C         142.5895  136.6498  155.6528 C.ar    1  UNL1        0.0177
     26 C         142.3163  135.3666  156.3801 C.ar    1  UNL1        0.0015
     27 C         141.8712  134.1532  155.6189 C.ar    1  UNL1        0.0000
     28 C         141.6992  134.2228  154.1304 C.ar    1  UNL1        0.0000
     29 C         141.9724  135.5060  153.4031 C.ar    1  UNL1        0.0000
     30 C         142.4175  136.7195  154.1643 C.ar    1  UNL1        0.0015
     31 C         144.8957  141.3050  155.7507 C.ar    1  UNL1        0.0008
     32 C         144.1046  142.3696  155.0500 C.ar    1  UNL1        0.0000
     33 C         144.8127  143.4837  154.3377 C.ar    1  UNL1        0.0000
     34 C         146.3118  143.5333  154.3261 C.ar    1  UNL1        0.0000
     35 C         147.1029  142.4688  155.0268 C.ar    1  UNL1        0.0000
     36 C         146.3948  141.3546  155.7391 C.ar    1  UNL1        0.0000
     37 C         144.3700  141.5035  158.6976 C.1     1  UNL1        0.1035
     38 N         144.8151  142.7170  159.4588 N.1     1  UNL1       -0.1907
@<TRIPOS>BOND
     1    23    24    1
     2    24    22    1
     3    22    20    1
     4    20    21    2
     5    20     7    1
     6     7     8   ar
     7     8     9   ar
     8     9    13    1
     9    13    14   ar
    10    14    15   ar
    11    15    16   ar
    12    16    17    1
    13    16    18   ar
    14    18    19   ar
    15     9    10   ar
    16    10    11    2
    17    11     1    1
    18     1     2   ar
    19     2     3   ar
    20     3    25    1
    21    25    26   ar
    22    26    27   ar
    23    27    28   ar
    24    28    29   ar
    25    29    30   ar
    26     3     4   ar
    27     4     5   ar
    28     5    31    1
    29    31    32   ar
    30    32    33   ar
    31    33    34   ar
    32    34    35   ar
    33    35    36   ar
    34     5     6   ar
    35     6    37    1
    36    37    38    3
    37    10    12   ar
    38    12     7   ar
    39    19    13   ar
    40     6     1   ar
    41    30    25   ar
    42    36    31   ar
@<TRIPOS>MOLECULE
*****
 38 42 0 0 0
SMALL
GASTEIGER

@<TRIPOS>ATOM
      1 C         139.1482  143.7984  157.5798 C.ar    1  UNL1        0.1740
      2 N         139.6230  144.9943  156.8088 N.ar    1  UNL1       -0.2259
      3 C         139.3142  145.1145  155.3459 C.ar    1  UNL1        0.0830
      4 C         138.5305  144.0389  154.6540 C.ar    1  UNL1        0.0199
      5 C         138.0556  142.8430  155.4250 C.ar    1  UNL1        0.0141
      6 C         138.3644  142.7228  156.8878 C.ar    1  UNL1        0.1042
      7 C         142.5270  141.3455  159.4895 C.ar    1  UNL1        0.2089
      8 N         142.2201  141.6971  160.9151 N.ar    1  UNL1       -0.1500
      9 N         141.0328  142.6137  160.9212 N.ar    1  UNL1       -0.2060
     10 C         140.6057  142.8286  159.4995 C.ar    1  UNL1        0.1983
     11 N         139.4569  143.6781  159.0427 N.2     1  UNL1       -0.2011
     12 S         141.5291  142.0449  158.6146 S.2     1  UNL1       -0.0214
     13 C         140.3860  143.2106  162.1360 C.ar    1  UNL1        0.0849
     14 C         141.1611  144.1471  163.0147 C.ar    1  UNL1        0.0189
     15 C         140.5143  144.7440  164.2293 C.ar    1  UNL1       -0.0027
     16 C         139.0924  144.4043  164.5653 C.ar    1  UNL1       -0.0218
     17 C         138.4457  145.0012  165.7800 C.3     1  UNL1        0.0310
     18 C         138.3173  143.4678  163.6866 C.ar    1  UNL1       -0.0027
     19 C         138.9641  142.8710  162.4719 C.ar    1  UNL1        0.0189
     20 C         143.6367  140.4516  159.0211 C.2     1  UNL1        0.3673
     21 O         144.6773  140.9791  158.0784 O.2     1  UNL1       -0.2425
     22 O         143.7057  139.0303  159.4954 O.3     1  UNL1       -0.4440
     23 C         143.2148  138.1274  161.8816 C.3     1  UNL1        0.0513
     24 C         144.1675  138.7265  160.8899 C.3     1  UNL1        0.2090
     25 C         139.7891  146.3103  154.5749 C.ar    1  UNL1        0.0177
     26 C         140.7582  146.1365  153.4432 C.ar    1  UNL1        0.0015
     27 C         141.2331  147.3323  152.6722 C.ar    1  UNL1        0.0000
     28 C         140.7389  148.7020  153.0328 C.ar    1  UNL1        0.0000
     29 C         139.7698  148.8757  154.1645 C.ar    1  UNL1        0.0000
     30 C         139.2949  147.6799  154.9356 C.ar    1  UNL1        0.0015
     31 C         137.2718  141.7674  154.7329 C.ar    1  UNL1        0.0008
     32 C         137.9771  140.5680  154.1725 C.ar    1  UNL1        0.0000
     33 C         137.1933  139.4925  153.4805 C.ar    1  UNL1        0.0000
     34 C         135.7043  139.6163  153.3489 C.ar    1  UNL1        0.0000
     35 C         134.9990  140.8157  153.9094 C.ar    1  UNL1        0.0000
     36 C         135.7827  141.8912  154.6014 C.ar    1  UNL1        0.0000
     37 C         137.8895  141.5269  157.6588 C.1     1  UNL1        0.1035
     38 N         137.4146  140.3310  158.4298 N.1     1  UNL1       -0.1907
@<TRIPOS>BOND
     1    23    24    1
     2    24    22    1
     3    22    20    1
     4    20    21    2
     5    20     7    1
     6     7     8   ar
     7     8     9   ar
     8     9    13    1
     9    13    14   ar
    10    14    15   ar
    11    15    16   ar
    12    16    17    1
    13    16    18   ar
    14    18    19   ar
    15     9    10   ar
    16    10    11    2
    17    11     1    1
    18     1     2   ar
    19     2     3   ar
    20     3    25    1
    21    25    26   ar
    22    26    27   ar
    23    27    28   ar
    24    28    29   ar
    25    29    30   ar
    26     3     4   ar
    27     4     5   ar
    28     5    31    1
    29    31    32   ar
    30    32    33   ar
    31    33    34   ar
    32    34    35   ar
    33    35    36   ar
    34     5     6   ar
    35     6    37    1
    36    37    38    3
    37    10    12   ar
    38    12     7   ar
    39    19    13   ar
    40     6     1   ar
    41    30    25   ar
    42    36    31   ar
