@<TRIPOS>MOLECULE
*****
 39 43 0 0 0
SMALL
GASTEIGER

@<TRIPOS>ATOM
      1 C         141.7124  144.5870  163.0112 C.3     1  UNL1        0.0162
      2 C         142.0936  143.8464  161.7637 C.3     1  UNL1        0.0028
      3 C         143.3856  143.0865  161.7078 C.3     1  UNL1        0.0158
      4 C         144.2965  143.0672  162.8993 C.3     1  UNL1        0.0543
      5 C         143.9154  143.8078  164.1468 C.3     1  UNL1        0.0158
      6 C         142.6233  144.5677  164.2028 C.3     1  UNL1        0.0028
      7 C         140.4203  145.3469  163.0671 C.3     1  UNL1        0.0737
      8 N         140.2246  146.5581  162.2043 N.3     1  UNL1       -0.3206
      9 H         141.0644  146.7185  161.6479 H       1  UNL1        0.1189
     10 H         140.0474  147.3710  162.7945 H       1  UNL1        0.1189
     11 C         139.3239  144.8955  163.9859 C.3     1  UNL1        0.1244
     12 C         140.4299  142.2939  167.4871 C.ar    1  UNL1        0.1402
     13 C         140.0167  140.8521  167.5102 C.ar    1  UNL1        0.0370
     14 C         139.2349  140.2775  166.3663 C.ar    1  UNL1        0.0045
     15 C         138.8663  141.1447  165.1992 C.ar    1  UNL1        0.0162
     16 C         138.0845  140.5701  164.0552 C.ar    1  UNL1        0.0063
     17 C         137.7159  141.4373  162.8882 C.ar    1  UNL1        0.0608
     18 C         138.1290  142.8791  162.8651 C.ar    1  UNL1        0.2610
     19 O         137.7603  143.7463  161.6980 O.2     1  UNL1       -0.2670
     20 N         138.9108  143.4537  164.0090 N.ar    1  UNL1       -0.2940
     21 C         139.2794  142.5865  165.1761 C.ar    1  UNL1        0.0655
     22 C         140.0612  143.1610  166.3201 C.ar    1  UNL1        0.0541
     23 C         140.5084  143.6422  169.7065 C.3     1  UNL1        0.2525
     24 O         141.2117  142.8685  168.6311 O.3     1  UNL1       -0.4714
     25 N         145.5886  142.3073  162.8434 N.3     1  UNL1       -0.2922
     26 H         146.2960  142.8966  163.2823 H       1  UNL1        0.1236
     27 C         145.6921  140.9556  163.4853 C.3     1  UNL1        0.1353
     28 C         144.4540  140.1452  163.7310 C.ar    1  UNL1        0.1567
     29 N         144.1914  139.5707  165.0915 N.ar    1  UNL1       -0.2245
     30 C         142.9533  138.7603  165.3373 C.ar    1  UNL1        0.1400
     31 C         141.9778  138.5245  164.2225 C.ar    1  UNL1        0.1898
     32 C         142.2404  139.0990  162.8619 C.ar    1  UNL1        0.1715
     33 N         143.4785  139.9094  162.6162 N.ar    1  UNL1       -0.2113
     34 N         141.2649  138.8632  161.7472 N.am    1  UNL1       -0.2638
     35 C         140.0267  138.0528  161.9929 C.2     1  UNL1        0.2718
     36 O         139.0512  137.8170  160.8781 O.2     1  UNL1       -0.2707
     37 C         139.7641  137.4783  163.3534 C.3     1  UNL1        0.2899
     38 O         140.7397  137.7141  164.4682 O.3     1  UNL1       -0.4612
     39 H         141.4372  139.2403  160.8542 H       1  UNL1        0.1565
@<TRIPOS>BOND
     1    23    24    1
     2    24    12    1
     3    12    13   ar
     4    13    14   ar
     5    14    15   ar
     6    15    16   ar
     7    16    17   ar
     8    17    18   ar
     9    18    19    2
    10    18    20   ar
    11    20    11    1
    12    11     7    1
    13     7     8    1
    14     7     1    1
    15     1     2    1
    16     2     3    1
    17     3     4    1
    18     4    25    1
    19    25    27    1
    20    27    28    1
    21    28    29   ar
    22    29    30   ar
    23    30    31   ar
    24    31    32   ar
    25    32    33   ar
    26    32    34    1
    27    34    35   am
    28    35    36    2
    29    35    37    1
    30    37    38    1
    31     4     5    1
    32     5     6    1
    33    20    21   ar
    34    21    22   ar
    35    22    12   ar
    36    21    15   ar
    37     6     1    1
    38    33    28   ar
    39    38    31    1
    40     8     9    1
    41     8    10    1
    42    25    26    1
    43    34    39    1
@<TRIPOS>MOLECULE
*****
 39 43 0 0 0
SMALL
GASTEIGER

@<TRIPOS>ATOM
      1 C         143.4576  142.1639  163.9455 C.3     1  UNL1        0.0162
      2 C         143.6972  142.8411  162.6288 C.3     1  UNL1        0.0028
      3 C         142.9697  144.1095  162.2944 C.3     1  UNL1        0.0158
      4 C         142.0026  144.7006  163.2767 C.3     1  UNL1        0.0543
      5 C         141.7629  144.0234  164.5935 C.3     1  UNL1        0.0158
      6 C         142.4904  142.7550  164.9279 C.3     1  UNL1        0.0028
      7 C         144.1851  140.8954  164.2799 C.3     1  UNL1        0.0737
      8 N         145.5740  140.6683  163.7610 N.3     1  UNL1       -0.3206
      9 H         145.8644  141.4718  163.2038 H       1  UNL1        0.1189
     10 H         145.5873  139.8295  163.1808 H       1  UNL1        0.1189
     11 C         143.5237  139.8541  165.1332 C.3     1  UNL1        0.1244
     12 C         139.6285  139.8477  167.3866 C.ar    1  UNL1        0.1402
     13 C         138.4563  139.0770  166.8557 C.ar    1  UNL1        0.0370
     14 C         138.5824  138.3084  165.5738 C.ar    1  UNL1        0.0045
     15 C         139.8808  138.3105  164.8227 C.ar    1  UNL1        0.0162
     16 C         140.0069  137.5418  163.5408 C.ar    1  UNL1        0.0063
     17 C         141.3053  137.5439  162.7897 C.ar    1  UNL1        0.0608
     18 C         142.4776  138.3147  163.3205 C.ar    1  UNL1        0.2610
     19 O         143.7760  138.3168  162.5694 O.2     1  UNL1       -0.2670
     20 N         142.3515  139.0833  164.6024 N.ar    1  UNL1       -0.2940
     21 C         141.0530  139.0812  165.3535 C.ar    1  UNL1        0.0655
     22 C         140.9269  139.8498  166.6355 C.ar    1  UNL1        0.0541
     23 C         140.3313  141.8467  168.8899 C.3     1  UNL1        0.2525
     24 O         139.5024  140.6164  168.6685 O.3     1  UNL1       -0.4714
     25 N         141.2750  145.9691  162.9423 N.3     1  UNL1       -0.2922
     26 H         141.8727  146.4912  162.3016 H       1  UNL1        0.1236
     27 C         139.9142  145.9098  162.3139 C.3     1  UNL1        0.1353
     28 C         139.2287  144.5880  162.1327 C.ar    1  UNL1        0.1567
     29 N         138.3584  144.0387  163.2239 N.ar    1  UNL1       -0.2245
     30 C         137.6728  142.7169  163.0427 C.ar    1  UNL1        0.1400
     31 C         137.8577  141.9444  161.7703 C.ar    1  UNL1        0.1898
     32 C         138.7281  142.4937  160.6790 C.ar    1  UNL1        0.1715
     33 N         139.4136  143.8155  160.8603 N.ar    1  UNL1       -0.2113
     34 N         138.9129  141.7212  159.4066 N.am    1  UNL1       -0.2638
     35 C         138.2273  140.3994  159.2254 C.2     1  UNL1        0.2718
     36 O         138.4121  139.6269  157.9530 O.2     1  UNL1       -0.2707
     37 C         137.3570  139.8501  160.3166 C.3     1  UNL1        0.2899
     38 O         137.1722  140.6226  161.5890 O.3     1  UNL1       -0.4612
     39 H         139.4841  142.0818  158.6904 H       1  UNL1        0.1565
@<TRIPOS>BOND
     1    23    24    1
     2    24    12    1
     3    12    13   ar
     4    13    14   ar
     5    14    15   ar
     6    15    16   ar
     7    16    17   ar
     8    17    18   ar
     9    18    19    2
    10    18    20   ar
    11    20    11    1
    12    11     7    1
    13     7     8    1
    14     7     1    1
    15     1     2    1
    16     2     3    1
    17     3     4    1
    18     4    25    1
    19    25    27    1
    20    27    28    1
    21    28    29   ar
    22    29    30   ar
    23    30    31   ar
    24    31    32   ar
    25    32    33   ar
    26    32    34    1
    27    34    35   am
    28    35    36    2
    29    35    37    1
    30    37    38    1
    31     4     5    1
    32     5     6    1
    33    20    21   ar
    34    21    22   ar
    35    22    12   ar
    36    21    15   ar
    37     6     1    1
    38    33    28   ar
    39    38    31    1
    40     8     9    1
    41     8    10    1
    42    25    26    1
    43    34    39    1
@<TRIPOS>MOLECULE
*****
 39 43 0 0 0
SMALL
GASTEIGER

@<TRIPOS>ATOM
      1 C         142.9958  141.3942  166.5301 C.3     1  UNL1        0.0162
      2 C         143.1029  139.8980  166.5215 C.3     1  UNL1        0.0028
      3 C         143.6563  139.1927  165.3189 C.3     1  UNL1        0.0158
      4 C         144.1025  139.9835  164.1250 C.3     1  UNL1        0.0543
      5 C         143.9954  141.4797  164.1337 C.3     1  UNL1        0.0158
      6 C         143.4421  142.1850  165.3363 C.3     1  UNL1        0.0028
      7 C         142.4424  142.0995  167.7328 C.3     1  UNL1        0.0737
      8 N         143.3676  142.5872  168.8080 N.3     1  UNL1       -0.3206
      9 H         144.3295  142.3562  168.5594 H       1  UNL1        0.1189
     10 H         143.1279  142.1387  169.6921 H       1  UNL1        0.1189
     11 C         140.9637  142.3171  167.8602 C.3     1  UNL1        0.1244
     12 C         139.2959  143.8477  163.9711 C.ar    1  UNL1        0.1402
     13 C         138.3425  143.0024  163.1795 C.ar    1  UNL1        0.0370
     14 C         137.9450  141.6470  163.6844 C.ar    1  UNL1        0.0045
     15 C         138.5009  141.1368  164.9807 C.ar    1  UNL1        0.0162
     16 C         138.1035  139.7814  165.4856 C.ar    1  UNL1        0.0063
     17 C         138.6594  139.2712  166.7819 C.ar    1  UNL1        0.0608
     18 C         139.6128  140.1165  167.5735 C.ar    1  UNL1        0.2610
     19 O         140.1688  139.6063  168.8699 O.2     1  UNL1       -0.2670
     20 N         140.0103  141.4719  167.0687 N.ar    1  UNL1       -0.2940
     21 C         139.4544  141.9821  165.7723 C.ar    1  UNL1        0.0655
     22 C         139.8518  143.3375  165.2674 C.ar    1  UNL1        0.0541
     23 C         139.6620  145.4944  161.9951 C.3     1  UNL1        0.2525
     24 O         139.6934  145.2031  163.4662 O.3     1  UNL1       -0.4714
     25 N         144.6559  139.2782  162.9223 N.3     1  UNL1       -0.2922
     26 H         145.5440  138.8645  163.2063 H       1  UNL1        0.1236
     27 C         143.8634  138.1902  162.2603 C.3     1  UNL1        0.1353
     28 C         142.3826  138.3453  162.0788 C.ar    1  UNL1        0.1567
     29 N         141.4354  137.5821  162.9565 N.ar    1  UNL1       -0.2245
     30 C         139.9545  137.7372  162.7751 C.ar    1  UNL1        0.1400
     31 C         139.4208  138.6555  161.7159 C.ar    1  UNL1        0.1898
     32 C         140.3680  139.4187  160.8381 C.ar    1  UNL1        0.1715
     33 N         141.8489  139.2636  161.0196 N.ar    1  UNL1       -0.2113
     34 N         139.8343  140.3370  159.7789 N.am    1  UNL1       -0.2638
     35 C         138.3534  140.4920  159.5975 C.2     1  UNL1        0.2718
     36 O         137.8196  141.4103  158.5383 O.2     1  UNL1       -0.2707
     37 C         137.4062  139.7288  160.4752 C.3     1  UNL1        0.2899
     38 O         137.9399  138.8106  161.5344 O.3     1  UNL1       -0.4612
     39 H         140.4559  140.8379  159.2028 H       1  UNL1        0.1565
@<TRIPOS>BOND
     1    23    24    1
     2    24    12    1
     3    12    13   ar
     4    13    14   ar
     5    14    15   ar
     6    15    16   ar
     7    16    17   ar
     8    17    18   ar
     9    18    19    2
    10    18    20   ar
    11    20    11    1
    12    11     7    1
    13     7     8    1
    14     7     1    1
    15     1     2    1
    16     2     3    1
    17     3     4    1
    18     4    25    1
    19    25    27    1
    20    27    28    1
    21    28    29   ar
    22    29    30   ar
    23    30    31   ar
    24    31    32   ar
    25    32    33   ar
    26    32    34    1
    27    34    35   am
    28    35    36    2
    29    35    37    1
    30    37    38    1
    31     4     5    1
    32     5     6    1
    33    20    21   ar
    34    21    22   ar
    35    22    12   ar
    36    21    15   ar
    37     6     1    1
    38    33    28   ar
    39    38    31    1
    40     8     9    1
    41     8    10    1
    42    25    26    1
    43    34    39    1
@<TRIPOS>MOLECULE
*****
 39 43 0 0 0
SMALL
GASTEIGER

@<TRIPOS>ATOM
      1 C         138.1809  139.9632  162.7551 C.3     1  UNL1        0.0162
      2 C         137.9132  140.7061  164.0304 C.3     1  UNL1        0.0028
      3 C         137.7340  142.1952  164.0074 C.3     1  UNL1        0.0158
      4 C         137.8225  142.9413  162.7092 C.3     1  UNL1        0.0543
      5 C         138.0902  142.1983  161.4339 C.3     1  UNL1        0.0158
      6 C         138.2694  140.7093  161.4568 C.3     1  UNL1        0.0028
      7 C         138.3601  138.4741  162.7781 C.3     1  UNL1        0.0737
      8 N         137.7413  137.6275  161.7055 N.3     1  UNL1       -0.3206
      9 H         137.2394  138.2247  161.0483 H       1  UNL1        0.1189
     10 H         137.0909  136.9651  162.1280 H       1  UNL1        0.1189
     11 C         139.1580  137.8315  163.8737 C.3     1  UNL1        0.1244
     12 C         140.1644  139.7625  167.8118 C.ar    1  UNL1        0.1402
     13 C         141.5662  140.2203  168.0861 C.ar    1  UNL1        0.0370
     14 C         142.6326  140.0344  167.0477 C.ar    1  UNL1        0.0045
     15 C         142.2972  139.3907  165.7350 C.ar    1  UNL1        0.0162
     16 C         143.3636  139.2048  164.6967 C.ar    1  UNL1        0.0063
     17 C         143.0282  138.5612  163.3840 C.ar    1  UNL1        0.0608
     18 C         141.6263  138.1034  163.1096 C.ar    1  UNL1        0.2610
     19 O         141.2909  137.4597  161.7969 O.2     1  UNL1       -0.2670
     20 N         140.5599  138.2893  164.1480 N.ar    1  UNL1       -0.2940
     21 C         140.8954  138.9330  165.4607 C.ar    1  UNL1        0.0655
     22 C         139.8289  139.1189  166.4991 C.ar    1  UNL1        0.0541
     23 C         139.3030  140.9260  169.9691 C.3     1  UNL1        0.2525
     24 O         139.0979  139.9484  168.8501 O.3     1  UNL1       -0.4714
     25 N         137.6433  144.4304  162.6862 N.3     1  UNL1       -0.2922
     26 H         137.1444  144.6802  163.5401 H       1  UNL1        0.1236
     27 C         138.8418  145.3289  162.6065 C.3     1  UNL1        0.1353
     28 C         140.1429  144.7988  162.0810 C.ar    1  UNL1        0.1567
     29 N         140.4612  144.9071  160.6192 N.ar    1  UNL1       -0.2245
     30 C         141.7623  144.3770  160.0936 C.ar    1  UNL1        0.1400
     31 C         142.7451  143.7387  161.0299 C.ar    1  UNL1        0.1898
     32 C         142.4268  143.6304  162.4918 C.ar    1  UNL1        0.1715
     33 N         141.1257  144.1605  163.0173 N.ar    1  UNL1       -0.2113
     34 N         143.4096  142.9921  163.4281 N.am    1  UNL1       -0.2638
     35 C         144.7107  142.4620  162.9025 C.2     1  UNL1        0.2718
     36 O         145.6935  141.8237  163.8389 O.2     1  UNL1       -0.2707
     37 C         145.0290  142.5703  161.4407 C.3     1  UNL1        0.2899
     38 O         144.0462  143.2086  160.5044 O.3     1  UNL1       -0.4612
     39 H         143.2006  142.9211  164.3876 H       1  UNL1        0.1565
@<TRIPOS>BOND
     1    23    24    1
     2    24    12    1
     3    12    13   ar
     4    13    14   ar
     5    14    15   ar
     6    15    16   ar
     7    16    17   ar
     8    17    18   ar
     9    18    19    2
    10    18    20   ar
    11    20    11    1
    12    11     7    1
    13     7     8    1
    14     7     1    1
    15     1     2    1
    16     2     3    1
    17     3     4    1
    18     4    25    1
    19    25    27    1
    20    27    28    1
    21    28    29   ar
    22    29    30   ar
    23    30    31   ar
    24    31    32   ar
    25    32    33   ar
    26    32    34    1
    27    34    35   am
    28    35    36    2
    29    35    37    1
    30    37    38    1
    31     4     5    1
    32     5     6    1
    33    20    21   ar
    34    21    22   ar
    35    22    12   ar
    36    21    15   ar
    37     6     1    1
    38    33    28   ar
    39    38    31    1
    40     8     9    1
    41     8    10    1
    42    25    26    1
    43    34    39    1
@<TRIPOS>MOLECULE
*****
 39 43 0 0 0
SMALL
GASTEIGER

@<TRIPOS>ATOM
      1 C         137.9837  142.7987  162.8109 C.3     1  UNL1        0.0162
      2 C         138.1619  142.5306  161.3459 C.3     1  UNL1        0.0028
      3 C         138.1454  141.1208  160.8340 C.3     1  UNL1        0.0158
      4 C         137.9509  139.9791  161.7872 C.3     1  UNL1        0.0543
      5 C         137.7728  140.2472  163.2522 C.3     1  UNL1        0.0158
      6 C         137.7892  141.6570  163.7641 C.3     1  UNL1        0.0028
      7 C         138.0002  144.2086  163.3228 C.3     1  UNL1        0.0737
      8 N         137.1283  145.2487  162.6840 N.3     1  UNL1       -0.3206
      9 H         136.5958  144.8257  161.9238 H       1  UNL1        0.1189
     10 H         137.7106  146.0000  162.3142 H       1  UNL1        0.1189
     11 C         138.8885  144.5784  164.4735 C.3     1  UNL1        0.1244
     12 C         140.8861  141.6439  167.2389 C.ar    1  UNL1        0.1402
     13 C         142.3658  141.4152  167.1478 C.ar    1  UNL1        0.0370
     14 C         143.1795  142.1647  166.1350 C.ar    1  UNL1        0.0045
     15 C         142.5137  143.1429  165.2132 C.ar    1  UNL1        0.0162
     16 C         143.3275  143.8925  164.2003 C.ar    1  UNL1        0.0063
     17 C         142.6616  144.8707  163.2785 C.ar    1  UNL1        0.0608
     18 C         141.1819  145.0993  163.3695 C.ar    1  UNL1        0.2610
     19 O         140.5161  146.0775  162.4478 O.2     1  UNL1       -0.2670
     20 N         140.3681  144.3498  164.3824 N.ar    1  UNL1       -0.2940
     21 C         141.0341  143.3716  165.3043 C.ar    1  UNL1        0.0655
     22 C         140.2203  142.6220  166.3172 C.ar    1  UNL1        0.0541
     23 C         140.7544  140.1679  169.3730 C.3     1  UNL1        0.2525
     24 O         140.0723  140.8943  168.2518 O.3     1  UNL1       -0.4714
     25 N         137.9345  138.5692  161.2753 N.3     1  UNL1       -0.2922
     26 H         137.4116  138.5799  160.3996 H       1  UNL1        0.1236
     27 C         139.2251  137.8560  161.0003 C.3     1  UNL1        0.1353
     28 C         140.4096  138.0777  161.8935 C.ar    1  UNL1        0.1567
     29 N         140.5815  137.2476  163.1309 N.ar    1  UNL1       -0.2245
     30 C         141.7660  137.4693  164.0242 C.ar    1  UNL1        0.1400
     31 C         142.7786  138.5211  163.6800 C.ar    1  UNL1        0.1898
     32 C         142.6066  139.3512  162.4424 C.ar    1  UNL1        0.1715
     33 N         141.4222  139.1295  161.5492 N.ar    1  UNL1       -0.2113
     34 N         143.6192  140.4029  162.0982 N.am    1  UNL1       -0.2638
     35 C         144.8037  140.6246  162.9915 C.2     1  UNL1        0.2718
     36 O         145.8163  141.6763  162.6472 O.2     1  UNL1       -0.2707
     37 C         144.9756  139.7945  164.2289 C.3     1  UNL1        0.2899
     38 O         143.9630  138.7427  164.5732 O.3     1  UNL1       -0.4612
     39 H         143.5064  140.9477  161.2860 H       1  UNL1        0.1565
@<TRIPOS>BOND
     1    23    24    1
     2    24    12    1
     3    12    13   ar
     4    13    14   ar
     5    14    15   ar
     6    15    16   ar
     7    16    17   ar
     8    17    18   ar
     9    18    19    2
    10    18    20   ar
    11    20    11    1
    12    11     7    1
    13     7     8    1
    14     7     1    1
    15     1     2    1
    16     2     3    1
    17     3     4    1
    18     4    25    1
    19    25    27    1
    20    27    28    1
    21    28    29   ar
    22    29    30   ar
    23    30    31   ar
    24    31    32   ar
    25    32    33   ar
    26    32    34    1
    27    34    35   am
    28    35    36    2
    29    35    37    1
    30    37    38    1
    31     4     5    1
    32     5     6    1
    33    20    21   ar
    34    21    22   ar
    35    22    12   ar
    36    21    15   ar
    37     6     1    1
    38    33    28   ar
    39    38    31    1
    40     8     9    1
    41     8    10    1
    42    25    26    1
    43    34    39    1
@<TRIPOS>MOLECULE
*****
 39 43 0 0 0
SMALL
GASTEIGER

@<TRIPOS>ATOM
      1 C         139.7435  143.6723  163.5654 C.3     1  UNL1        0.0162
      2 C         140.1803  143.1698  164.9095 C.3     1  UNL1        0.0028
      3 C         141.6245  143.2493  165.3069 C.3     1  UNL1        0.0158
      4 C         142.6319  143.8313  164.3601 C.3     1  UNL1        0.0543
      5 C         142.1950  144.3339  163.0160 C.3     1  UNL1        0.0158
      6 C         140.7509  144.2543  162.6186 C.3     1  UNL1        0.0028
      7 C         138.2992  143.5928  163.1681 C.3     1  UNL1        0.0737
      8 N         137.6488  144.7496  162.4690 N.3     1  UNL1       -0.3206
      9 H         138.3298  145.4989  162.3460 H       1  UNL1        0.1189
     10 H         136.8670  145.0893  163.0291 H       1  UNL1        0.1189
     11 C         137.5054  142.3563  163.4698 C.3     1  UNL1        0.1244
     12 C         138.4551  138.8582  166.1365 C.ar    1  UNL1        0.1402
     13 C         138.8564  137.5440  165.5352 C.ar    1  UNL1        0.0370
     14 C         138.9411  137.3957  164.0449 C.ar    1  UNL1        0.0045
     15 C         138.6245  138.5617  163.1560 C.ar    1  UNL1        0.0162
     16 C         138.7092  138.4135  161.6658 C.ar    1  UNL1        0.0063
     17 C         138.3926  139.5794  160.7769 C.ar    1  UNL1        0.0608
     18 C         137.9913  140.8938  161.3782 C.ar    1  UNL1        0.2610
     19 O         137.6748  142.0598  160.4893 O.2     1  UNL1       -0.2670
     20 N         137.9066  141.0421  162.8685 N.ar    1  UNL1       -0.2940
     21 C         138.2232  139.8760  163.7574 C.ar    1  UNL1        0.0655
     22 C         138.1385  140.0242  165.2476 C.ar    1  UNL1        0.0541
     23 C         139.3171  139.9223  168.3444 C.3     1  UNL1        0.2525
     24 O         138.3704  139.0065  167.6268 O.3     1  UNL1       -0.4714
     25 N         144.0762  143.9109  164.7574 N.3     1  UNL1       -0.2922
     26 H         144.0966  144.1843  165.7399 H       1  UNL1        0.1236
     27 C         144.9579  142.7047  164.6251 C.3     1  UNL1        0.1353
     28 C         144.4385  141.4655  163.9584 C.ar    1  UNL1        0.1567
     29 N         143.9314  140.3237  164.7885 N.ar    1  UNL1       -0.2245
     30 C         143.4120  139.0844  164.1218 C.ar    1  UNL1        0.1400
     31 C         143.3997  138.9869  162.6250 C.ar    1  UNL1        0.1898
     32 C         143.9069  140.1288  161.7949 C.ar    1  UNL1        0.1715
     33 N         144.4263  141.3680  162.4616 N.ar    1  UNL1       -0.2113
     34 N         143.8946  140.0314  160.2982 N.am    1  UNL1       -0.2638
     35 C         143.3752  138.7921  159.6315 C.2     1  UNL1        0.2718
     36 O         143.3629  138.6947  158.1347 O.2     1  UNL1       -0.2707
     37 C         142.8681  137.6503  160.4615 C.3     1  UNL1        0.2899
     38 O         142.8803  137.7477  161.9583 O.3     1  UNL1       -0.4612
     39 H         144.2274  140.7808  159.7533 H       1  UNL1        0.1565
@<TRIPOS>BOND
     1    23    24    1
     2    24    12    1
     3    12    13   ar
     4    13    14   ar
     5    14    15   ar
     6    15    16   ar
     7    16    17   ar
     8    17    18   ar
     9    18    19    2
    10    18    20   ar
    11    20    11    1
    12    11     7    1
    13     7     8    1
    14     7     1    1
    15     1     2    1
    16     2     3    1
    17     3     4    1
    18     4    25    1
    19    25    27    1
    20    27    28    1
    21    28    29   ar
    22    29    30   ar
    23    30    31   ar
    24    31    32   ar
    25    32    33   ar
    26    32    34    1
    27    34    35   am
    28    35    36    2
    29    35    37    1
    30    37    38    1
    31     4     5    1
    32     5     6    1
    33    20    21   ar
    34    21    22   ar
    35    22    12   ar
    36    21    15   ar
    37     6     1    1
    38    33    28   ar
    39    38    31    1
    40     8     9    1
    41     8    10    1
    42    25    26    1
    43    34    39    1
@<TRIPOS>MOLECULE
*****
 39 43 0 0 0
SMALL
GASTEIGER

@<TRIPOS>ATOM
      1 C         143.8582  142.6759  162.4984 C.3     1  UNL1        0.0162
      2 C         143.7215  143.6134  163.6614 C.3     1  UNL1        0.0028
      3 C         142.7103  144.7203  163.6175 C.3     1  UNL1        0.0158
      4 C         141.8358  144.8898  162.4107 C.3     1  UNL1        0.0543
      5 C         141.9725  143.9524  161.2478 C.3     1  UNL1        0.0158
      6 C         142.9837  142.8454  161.2916 C.3     1  UNL1        0.0028
      7 C         144.8695  141.5689  162.5423 C.3     1  UNL1        0.0737
      8 N         146.2724  141.8519  162.9916 N.3     1  UNL1       -0.3206
      9 H         146.3610  142.8404  163.2272 H       1  UNL1        0.1189
     10 H         146.9229  141.6219  162.2404 H       1  UNL1        0.1189
     11 C         144.4779  140.1788  162.1369 C.3     1  UNL1        0.1244
     12 C         140.5021  138.9271  160.4410 C.ar    1  UNL1        0.1402
     13 C         139.5406  138.1429  161.2839 C.ar    1  UNL1        0.0370
     14 C         139.9044  137.7758  162.6920 C.ar    1  UNL1        0.0045
     15 C         141.2297  138.1930  163.2573 C.ar    1  UNL1        0.0162
     16 C         141.5935  137.8259  164.6655 C.ar    1  UNL1        0.0063
     17 C         142.9187  138.2431  165.2308 C.ar    1  UNL1        0.0608
     18 C         143.8803  139.0275  164.3879 C.ar    1  UNL1        0.2610
     19 O         145.2055  139.4447  164.9532 O.2     1  UNL1       -0.2670
     20 N         143.5165  139.3945  162.9797 N.ar    1  UNL1       -0.2940
     21 C         142.1911  138.9773  162.4145 C.ar    1  UNL1        0.0655
     22 C         141.8273  139.3443  161.0063 C.ar    1  UNL1        0.0541
     23 C         139.9206  138.2190  158.0099 C.3     1  UNL1        0.2525
     24 O         140.1383  139.2942  159.0329 O.3     1  UNL1       -0.4714
     25 N         140.8245  145.9969  162.3668 N.3     1  UNL1       -0.2922
     26 H         140.8622  146.3931  161.4277 H       1  UNL1        0.1236
     27 C         139.3817  145.7065  162.6566 C.3     1  UNL1        0.1353
     28 C         138.9595  144.3219  163.0495 C.ar    1  UNL1        0.1567
     29 N         138.0205  143.5471  162.1732 N.ar    1  UNL1       -0.2245
     30 C         137.5983  142.1624  162.5660 C.ar    1  UNL1        0.1400
     31 C         138.1151  141.5524  163.8352 C.ar    1  UNL1        0.1898
     32 C         139.0541  142.3273  164.7116 C.ar    1  UNL1        0.1715
     33 N         139.4763  143.7119  164.3187 N.ar    1  UNL1       -0.2113
     34 N         139.5709  141.7173  165.9808 N.am    1  UNL1       -0.2638
     35 C         139.1487  140.3326  166.3737 C.2     1  UNL1        0.2718
     36 O         139.6655  139.7227  167.6429 O.2     1  UNL1       -0.2707
     37 C         138.2097  139.5578  165.4973 C.3     1  UNL1        0.2899
     38 O         137.6929  140.1678  164.2281 O.3     1  UNL1       -0.4612
     39 H         140.1872  142.2259  166.5560 H       1  UNL1        0.1565
@<TRIPOS>BOND
     1    23    24    1
     2    24    12    1
     3    12    13   ar
     4    13    14   ar
     5    14    15   ar
     6    15    16   ar
     7    16    17   ar
     8    17    18   ar
     9    18    19    2
    10    18    20   ar
    11    20    11    1
    12    11     7    1
    13     7     8    1
    14     7     1    1
    15     1     2    1
    16     2     3    1
    17     3     4    1
    18     4    25    1
    19    25    27    1
    20    27    28    1
    21    28    29   ar
    22    29    30   ar
    23    30    31   ar
    24    31    32   ar
    25    32    33   ar
    26    32    34    1
    27    34    35   am
    28    35    36    2
    29    35    37    1
    30    37    38    1
    31     4     5    1
    32     5     6    1
    33    20    21   ar
    34    21    22   ar
    35    22    12   ar
    36    21    15   ar
    37     6     1    1
    38    33    28   ar
    39    38    31    1
    40     8     9    1
    41     8    10    1
    42    25    26    1
    43    34    39    1
@<TRIPOS>MOLECULE
*****
 39 43 0 0 0
SMALL
GASTEIGER

@<TRIPOS>ATOM
      1 C         142.3323  138.9352  162.5295 C.3     1  UNL1        0.0162
      2 C         142.6604  138.4024  163.8927 C.3     1  UNL1        0.0028
      3 C         141.5708  137.8546  164.7660 C.3     1  UNL1        0.0158
      4 C         140.1532  137.8396  164.2761 C.3     1  UNL1        0.0543
      5 C         139.8251  138.3724  162.9128 C.3     1  UNL1        0.0158
      6 C         140.9147  138.9202  162.0395 C.3     1  UNL1        0.0028
      7 C         143.4219  139.4831  161.6561 C.3     1  UNL1        0.0737
      8 N         144.4509  138.5605  161.0729 N.3     1  UNL1       -0.3206
      9 H         144.2583  137.6043  161.3714 H       1  UNL1        0.1189
     10 H         145.3779  138.8374  161.3960 H       1  UNL1        0.1189
     11 C         143.4826  140.9535  161.3660 C.3     1  UNL1        0.1244
     12 C         139.8684  143.5403  162.0703 C.ar    1  UNL1        0.1402
     13 C         139.8617  144.5283  163.1989 C.ar    1  UNL1        0.0370
     14 C         141.0597  144.6541  164.0927 C.ar    1  UNL1        0.0045
     15 C         142.2644  143.7919  163.8579 C.ar    1  UNL1        0.0162
     16 C         143.4625  143.9176  164.7517 C.ar    1  UNL1        0.0063
     17 C         144.6672  143.0554  164.5170 C.ar    1  UNL1        0.0608
     18 C         144.6739  142.0673  163.3884 C.ar    1  UNL1        0.2610
     19 O         145.8786  141.2051  163.1536 O.2     1  UNL1       -0.2670
     20 N         143.4759  141.9415  162.4946 N.ar    1  UNL1       -0.2940
     21 C         142.2711  142.8038  162.7294 C.ar    1  UNL1        0.0655
     22 C         141.0731  142.6780  161.8356 C.ar    1  UNL1        0.0541
     23 C         138.4665  142.1686  160.3665 C.3     1  UNL1        0.2525
     24 O         138.6703  143.4145  161.1765 O.3     1  UNL1       -0.4714
     25 N         139.0636  137.2917  165.1494 N.3     1  UNL1       -0.2922
     26 H         139.5018  136.6220  165.7818 H       1  UNL1        0.1236
     27 C         138.2462  138.2189  165.9993 C.3     1  UNL1        0.1353
     28 C         138.8765  139.4434  166.5935 C.ar    1  UNL1        0.1567
     29 N         139.3310  140.5607  165.7018 N.ar    1  UNL1       -0.2245
     30 C         139.9614  141.7854  166.2959 C.ar    1  UNL1        0.1400
     31 C         140.1373  141.8927  167.7817 C.ar    1  UNL1        0.1898
     32 C         139.6827  140.7753  168.6734 C.ar    1  UNL1        0.1715
     33 N         139.0524  139.5507  168.0792 N.ar    1  UNL1       -0.2113
     34 N         139.8586  140.8826  170.1592 N.am    1  UNL1       -0.2638
     35 C         140.4890  142.1072  170.7533 C.2     1  UNL1        0.2718
     36 O         140.6648  142.2145  172.2391 O.2     1  UNL1       -0.2707
     37 C         140.9435  143.2245  169.8616 C.3     1  UNL1        0.2899
     38 O         140.7676  143.1172  168.3758 O.3     1  UNL1       -0.4612
     39 H         139.5603  140.1493  170.7444 H       1  UNL1        0.1565
@<TRIPOS>BOND
     1    23    24    1
     2    24    12    1
     3    12    13   ar
     4    13    14   ar
     5    14    15   ar
     6    15    16   ar
     7    16    17   ar
     8    17    18   ar
     9    18    19    2
    10    18    20   ar
    11    20    11    1
    12    11     7    1
    13     7     8    1
    14     7     1    1
    15     1     2    1
    16     2     3    1
    17     3     4    1
    18     4    25    1
    19    25    27    1
    20    27    28    1
    21    28    29   ar
    22    29    30   ar
    23    30    31   ar
    24    31    32   ar
    25    32    33   ar
    26    32    34    1
    27    34    35   am
    28    35    36    2
    29    35    37    1
    30    37    38    1
    31     4     5    1
    32     5     6    1
    33    20    21   ar
    34    21    22   ar
    35    22    12   ar
    36    21    15   ar
    37     6     1    1
    38    33    28   ar
    39    38    31    1
    40     8     9    1
    41     8    10    1
    42    25    26    1
    43    34    39    1
@<TRIPOS>MOLECULE
*****
 39 43 0 0 0
SMALL
GASTEIGER

@<TRIPOS>ATOM
      1 C         143.2915  140.4145  160.6138 C.3     1  UNL1        0.0162
      2 C         141.7928  140.3973  160.6740 C.3     1  UNL1        0.0028
      3 C         141.0837  139.2862  161.3899 C.3     1  UNL1        0.0158
      4 C         141.8733  138.1923  162.0455 C.3     1  UNL1        0.0543
      5 C         143.3720  138.2095  161.9853 C.3     1  UNL1        0.0158
      6 C         144.0811  139.3206  161.2694 C.3     1  UNL1        0.0028
      7 C         144.0006  141.5257  159.8978 C.3     1  UNL1        0.0737
      8 N         144.1961  141.4562  158.4123 N.3     1  UNL1       -0.3206
      9 H         143.7879  140.5922  158.0556 H       1  UNL1        0.1189
     10 H         145.1935  141.4742  158.1994 H       1  UNL1        0.1189
     11 C         144.5141  142.7063  160.6675 C.3     1  UNL1        0.1244
     12 C         140.7186  145.0283  161.3396 C.ar    1  UNL1        0.1402
     13 C         140.2322  145.2827  162.7356 C.ar    1  UNL1        0.0370
     14 C         141.0111  144.7631  163.9075 C.ar    1  UNL1        0.0045
     15 C         142.2762  143.9891  163.6835 C.ar    1  UNL1        0.0162
     16 C         143.0551  143.4695  164.8554 C.ar    1  UNL1        0.0063
     17 C         144.3203  142.6955  164.6314 C.ar    1  UNL1        0.0608
     18 C         144.8067  142.4411  163.2354 C.ar    1  UNL1        0.2610
     19 O         146.0718  141.6671  163.0113 O.2     1  UNL1       -0.2670
     20 N         144.0278  142.9607  162.0634 N.ar    1  UNL1       -0.2940
     21 C         142.7626  143.7347  162.2875 C.ar    1  UNL1        0.0655
     22 C         141.9837  144.2543  161.1156 C.ar    1  UNL1        0.0541
     23 C         140.2168  145.0222  158.7905 C.3     1  UNL1        0.2525
     24 O         139.9397  145.5479  160.1677 O.3     1  UNL1       -0.4714
     25 N         141.1642  137.0811  162.7615 N.3     1  UNL1       -0.2922
     26 H         141.5417  136.2070  162.3956 H       1  UNL1        0.1236
     27 C         141.2315  136.9894  164.2572 C.3     1  UNL1        0.1353
     28 C         140.9498  138.2004  165.0962 C.ar    1  UNL1        0.1567
     29 N         139.5494  138.7258  165.2085 N.ar    1  UNL1       -0.2245
     30 C         139.2677  139.9369  166.0476 C.ar    1  UNL1        0.1400
     31 C         140.3865  140.6225  166.7744 C.ar    1  UNL1        0.1898
     32 C         141.7870  140.0970  166.6621 C.ar    1  UNL1        0.1715
     33 N         142.0686  138.8860  165.8230 N.ar    1  UNL1       -0.2113
     34 N         142.9058  140.7826  167.3889 N.am    1  UNL1       -0.2638
     35 C         142.6241  141.9937  168.2280 C.2     1  UNL1        0.2718
     36 O         143.7429  142.6793  168.9548 O.2     1  UNL1       -0.2707
     37 C         141.2236  142.5191  168.3403 C.3     1  UNL1        0.2899
     38 O         140.1048  141.8335  167.6135 O.3     1  UNL1       -0.4612
     39 H         143.8250  140.4378  167.3152 H       1  UNL1        0.1565
@<TRIPOS>BOND
     1    23    24    1
     2    24    12    1
     3    12    13   ar
     4    13    14   ar
     5    14    15   ar
     6    15    16   ar
     7    16    17   ar
     8    17    18   ar
     9    18    19    2
    10    18    20   ar
    11    20    11    1
    12    11     7    1
    13     7     8    1
    14     7     1    1
    15     1     2    1
    16     2     3    1
    17     3     4    1
    18     4    25    1
    19    25    27    1
    20    27    28    1
    21    28    29   ar
    22    29    30   ar
    23    30    31   ar
    24    31    32   ar
    25    32    33   ar
    26    32    34    1
    27    34    35   am
    28    35    36    2
    29    35    37    1
    30    37    38    1
    31     4     5    1
    32     5     6    1
    33    20    21   ar
    34    21    22   ar
    35    22    12   ar
    36    21    15   ar
    37     6     1    1
    38    33    28   ar
    39    38    31    1
    40     8     9    1
    41     8    10    1
    42    25    26    1
    43    34    39    1
