@<TRIPOS>MOLECULE
*****
 33 36 0 0 0
SMALL
GASTEIGER

@<TRIPOS>ATOM
      1 N         142.7465  140.0354  160.1256 N.3     1  UNL1       -0.2673
      2 C         141.3749  140.3502  159.6063 C.3     1  UNL1        0.1035
      3 C         140.7923  141.7176  159.8079 C.3     1  UNL1        0.1470
      4 C         140.2097  143.0851  160.0094 C.3     1  UNL1        0.1035
      5 N         140.9986  144.1377  160.7302 N.3     1  UNL1       -0.2682
      6 C         142.3703  143.8228  161.2495 C.3     1  UNL1        0.1035
      7 C         142.9528  142.4554  161.0480 C.3     1  UNL1        0.1470
      8 C         143.5354  141.0880  160.8464 C.3     1  UNL1        0.1035
      9 O         141.5813  142.7702  160.5287 O.3     1  UNL1       -0.3530
     10 C         143.3292  138.6679  159.9240 C.3     1  UNL1        0.0913
     11 C         143.3521  137.6876  161.0592 C.3     1  UNL1        0.1087
     12 N         142.0662  137.2321  161.6828 N.3     1  UNL1       -0.1780
     13 H         141.3286  137.4115  161.0015 H       1  UNL1        0.1488
     14 S         141.6101  137.8279  162.9816 S.O2    1  UNL1        0.0603
     15 O         142.9708  138.4254  163.1853 O.2     1  UNL1       -0.1530
     16 O         140.2494  137.2305  162.7779 O.2     1  UNL1       -0.1530
     17 C         140.2419  139.6156  166.8781 C.ar    1  UNL1        0.0685
     18 C         139.2410  139.0155  165.9358 C.ar    1  UNL1        0.0116
     19 C         139.6970  138.4196  164.6369 C.ar    1  UNL1        0.0206
     20 C         141.1540  138.4238  164.2804 C.ar    1  UNL1        0.1220
     21 C         142.1550  139.0240  165.2228 C.ar    1  UNL1        0.0206
     22 C         141.6989  139.6198  166.5215 C.ar    1  UNL1        0.0116
     23 N         139.3298  140.8074  169.4757 N.1     1  UNL1       -0.1908
     24 C         139.7859  140.2115  168.1768 C.1     1  UNL1        0.1004
     25 C         140.4160  145.5051  160.9318 C.3     1  UNL1        0.0769
     26 C         139.7177  145.8410  162.2162 C.3     1  UNL1        0.0437
     27 C         139.3116  144.7462  163.1576 C.ar    1  UNL1       -0.0186
     28 C         138.0300  144.0002  162.9322 C.ar    1  UNL1       -0.0041
     29 C         137.6239  142.9053  163.8736 C.ar    1  UNL1        0.0020
     30 C         138.4994  142.5564  165.0406 C.ar    1  UNL1        0.0296
     31 C         139.7811  143.3025  165.2660 C.ar    1  UNL1        0.1398
     32 F         140.6566  142.9536  166.4329 F       1  UNL1       -0.2042
     33 C         140.1872  144.3973  164.3246 C.ar    1  UNL1        0.0254
@<TRIPOS>BOND
     1    23    24    3
     2    24    17    1
     3    17    18   ar
     4    18    19   ar
     5    19    20   ar
     6    20    14    1
     7    14    15    2
     8    14    16    2
     9    14    12    1
    10    12    11    1
    11    11    10    1
    12    10     1    1
    13     1     2    1
    14     2     3    1
    15     3     4    1
    16     4     5    1
    17     5    25    1
    18    25    26    1
    19    26    27    1
    20    27    28   ar
    21    28    29   ar
    22    29    30   ar
    23    30    31   ar
    24    31    32    1
    25    31    33   ar
    26     5     6    1
    27     6     7    1
    28     7     8    1
    29     7     9    1
    30    20    21   ar
    31    21    22   ar
    32    22    17   ar
    33     8     1    1
    34     9     3    1
    35    33    27   ar
    36    12    13    1
@<TRIPOS>MOLECULE
*****
 33 36 0 0 0
SMALL
GASTEIGER

@<TRIPOS>ATOM
      1 N         144.2452  140.7072  163.0894 N.3     1  UNL1       -0.2673
      2 C         144.4839  142.0960  163.6034 C.3     1  UNL1        0.1035
      3 C         143.6791  143.2427  163.0674 C.3     1  UNL1        0.1470
      4 C         142.8743  144.3895  162.5313 C.3     1  UNL1        0.1035
      5 N         141.8309  144.1474  161.4812 N.3     1  UNL1       -0.2682
      6 C         141.5923  142.7585  160.9672 C.3     1  UNL1        0.1035
      7 C         142.3970  141.6118  161.5033 C.3     1  UNL1        0.1470
      8 C         143.2018  140.4651  162.0393 C.3     1  UNL1        0.1035
      9 O         142.6357  143.0006  162.0173 O.3     1  UNL1       -0.3530
     10 C         145.0500  139.5604  163.6255 C.3     1  UNL1        0.0913
     11 C         144.6812  138.9338  164.9374 C.3     1  UNL1        0.1087
     12 N         143.2418  138.6614  165.2603 N.3     1  UNL1       -0.1780
     13 H         142.7190  138.7731  164.3916 H       1  UNL1        0.1488
     14 S         142.5374  139.4836  166.2984 S.O2    1  UNL1        0.0603
     15 O         143.3387  138.8121  167.3740 O.2     1  UNL1       -0.1530
     16 O         141.7361  140.1552  165.2228 O.2     1  UNL1       -0.1530
     17 C         140.4242  141.9502  169.4129 C.ar    1  UNL1        0.0685
     18 C         140.5511  142.4633  168.0091 C.ar    1  UNL1        0.0116
     19 C         141.2555  141.6410  166.9709 C.ar    1  UNL1        0.0206
     20 C         141.8330  140.3058  167.3365 C.ar    1  UNL1        0.1220
     21 C         141.7060  139.7928  168.7404 C.ar    1  UNL1        0.0206
     22 C         141.0016  140.6150  169.7785 C.ar    1  UNL1        0.0116
     23 N         139.0153  143.5947  171.4892 N.1     1  UNL1       -0.1908
     24 C         139.7197  142.7724  170.4510 C.1     1  UNL1        0.1004
     25 C         141.0262  145.2941  160.9452 C.3     1  UNL1        0.0769
     26 C         139.7056  145.6393  161.5674 C.3     1  UNL1        0.0437
     27 C         139.1280  144.7607  162.6370 C.ar    1  UNL1       -0.0186
     28 C         139.4295  145.0386  164.0799 C.ar    1  UNL1       -0.0041
     29 C         138.8518  144.1599  165.1496 C.ar    1  UNL1        0.0020
     30 C         137.9726  143.0033  164.7764 C.ar    1  UNL1        0.0296
     31 C         137.6711  142.7254  163.3335 C.ar    1  UNL1        0.1398
     32 F         136.7920  141.5687  162.9603 F       1  UNL1       -0.2042
     33 C         138.2488  143.6040  162.2638 C.ar    1  UNL1        0.0254
@<TRIPOS>BOND
     1    23    24    3
     2    24    17    1
     3    17    18   ar
     4    18    19   ar
     5    19    20   ar
     6    20    14    1
     7    14    15    2
     8    14    16    2
     9    14    12    1
    10    12    11    1
    11    11    10    1
    12    10     1    1
    13     1     2    1
    14     2     3    1
    15     3     4    1
    16     4     5    1
    17     5    25    1
    18    25    26    1
    19    26    27    1
    20    27    28   ar
    21    28    29   ar
    22    29    30   ar
    23    30    31   ar
    24    31    32    1
    25    31    33   ar
    26     5     6    1
    27     6     7    1
    28     7     8    1
    29     7     9    1
    30    20    21   ar
    31    21    22   ar
    32    22    17   ar
    33     8     1    1
    34     9     3    1
    35    33    27   ar
    36    12    13    1
@<TRIPOS>MOLECULE
*****
 33 36 0 0 0
SMALL
GASTEIGER

@<TRIPOS>ATOM
      1 N         141.0046  140.5812  159.1125 N.3     1  UNL1       -0.2673
      2 C         139.5227  140.5102  159.3338 C.3     1  UNL1        0.1035
      3 C         138.8464  141.5204  160.2124 C.3     1  UNL1        0.1470
      4 C         138.1700  142.5306  161.0910 C.3     1  UNL1        0.1035
      5 N         138.9755  143.6118  161.7484 N.3     1  UNL1       -0.2682
      6 C         140.4574  143.6828  161.5270 C.3     1  UNL1        0.1035
      7 C         141.1338  142.6726  160.6484 C.3     1  UNL1        0.1470
      8 C         141.8101  141.6624  159.7698 C.3     1  UNL1        0.1035
      9 O         139.6519  142.6016  160.8697 O.3     1  UNL1       -0.3530
     10 C         141.6810  139.5710  158.2338 C.3     1  UNL1        0.0913
     11 C         142.9024  138.8503  158.7223 C.3     1  UNL1        0.1087
     12 N         142.7646  137.7078  159.6845 N.3     1  UNL1       -0.1780
     13 H         141.8717  137.2583  159.4818 H       1  UNL1        0.1488
     14 S         142.7950  137.9639  161.1621 S.O2    1  UNL1        0.0603
     15 O         144.2556  138.2937  161.0749 O.2     1  UNL1       -0.1530
     16 O         141.3343  137.6340  161.2493 O.2     1  UNL1       -0.1530
     17 C         142.8862  138.7322  165.5951 C.ar    1  UNL1        0.0685
     18 C         141.7273  138.0015  164.9843 C.ar    1  UNL1        0.0116
     19 C         141.6969  137.7454  163.5065 C.ar    1  UNL1        0.0206
     20 C         142.8254  138.2200  162.6397 C.ar    1  UNL1        0.1220
     21 C         143.9843  138.9506  163.2507 C.ar    1  UNL1        0.0206
     22 C         144.0146  139.2067  164.7283 C.ar    1  UNL1        0.0116
     23 N         142.9469  139.2443  168.5504 N.1     1  UNL1       -0.1908
     24 C         142.9165  138.9883  167.0727 C.1     1  UNL1        0.1004
     25 C         138.2992  144.6220  162.6270 C.3     1  UNL1        0.0769
     26 C         137.7980  144.2210  163.9828 C.3     1  UNL1        0.0437
     27 C         138.5231  143.1699  164.7697 C.ar    1  UNL1       -0.0186
     28 C         139.6951  143.5490  165.6256 C.ar    1  UNL1       -0.0041
     29 C         140.4203  142.4979  166.4126 C.ar    1  UNL1        0.0020
     30 C         139.9735  141.0676  166.3436 C.ar    1  UNL1        0.0296
     31 C         138.8015  140.6885  165.4876 C.ar    1  UNL1        0.1398
     32 F         138.3546  139.2583  165.4185 F       1  UNL1       -0.2042
     33 C         138.0763  141.7396  164.7006 C.ar    1  UNL1        0.0254
@<TRIPOS>BOND
     1    23    24    3
     2    24    17    1
     3    17    18   ar
     4    18    19   ar
     5    19    20   ar
     6    20    14    1
     7    14    15    2
     8    14    16    2
     9    14    12    1
    10    12    11    1
    11    11    10    1
    12    10     1    1
    13     1     2    1
    14     2     3    1
    15     3     4    1
    16     4     5    1
    17     5    25    1
    18    25    26    1
    19    26    27    1
    20    27    28   ar
    21    28    29   ar
    22    29    30   ar
    23    30    31   ar
    24    31    32    1
    25    31    33   ar
    26     5     6    1
    27     6     7    1
    28     7     8    1
    29     7     9    1
    30    20    21   ar
    31    21    22   ar
    32    22    17   ar
    33     8     1    1
    34     9     3    1
    35    33    27   ar
    36    12    13    1
@<TRIPOS>MOLECULE
*****
 33 36 0 0 0
SMALL
GASTEIGER

@<TRIPOS>ATOM
      1 N         140.8071  140.5009  159.1548 N.3     1  UNL1       -0.2673
      2 C         139.9312  139.9965  160.2631 C.3     1  UNL1        0.1035
      3 C         139.3026  140.9640  161.2216 C.3     1  UNL1        0.1470
      4 C         138.6740  141.9315  162.1802 C.3     1  UNL1        0.1035
      5 N         138.9214  143.4033  162.0305 N.3     1  UNL1       -0.2682
      6 C         139.7974  143.9077  160.9222 C.3     1  UNL1        0.1035
      7 C         140.4259  142.9402  159.9636 C.3     1  UNL1        0.1470
      8 C         141.0544  141.9728  159.0051 C.3     1  UNL1        0.1035
      9 O         139.5500  142.4359  161.0719 O.3     1  UNL1       -0.3530
     10 C         141.4357  139.5334  158.1962 C.3     1  UNL1        0.0913
     11 C         142.0276  138.2521  158.7039 C.3     1  UNL1        0.1087
     12 N         143.2951  138.2774  159.5058 N.3     1  UNL1       -0.1780
     13 H         143.7852  137.4047  159.3094 H       1  UNL1        0.1488
     14 S         143.2357  138.4143  160.9983 S.O2    1  UNL1        0.0603
     15 O         142.1644  137.3658  161.0518 O.2     1  UNL1       -0.1530
     16 O         144.3069  139.4628  160.9448 O.2     1  UNL1       -0.1530
     17 C         143.0574  138.8250  165.4760 C.ar    1  UNL1        0.0685
     18 C         141.9542  138.1210  164.7429 C.ar    1  UNL1        0.0116
     19 C         142.0136  137.9841  163.2503 C.ar    1  UNL1        0.0206
     20 C         143.1762  138.5512  162.4908 C.ar    1  UNL1        0.1220
     21 C         144.2794  139.2552  163.2240 C.ar    1  UNL1        0.0206
     22 C         144.2200  139.3921  164.7165 C.ar    1  UNL1        0.0116
     23 N         142.9385  139.0988  168.4611 N.1     1  UNL1       -0.1908
     24 C         142.9979  138.9619  166.9685 C.1     1  UNL1        0.1004
     25 C         138.2928  144.3708  162.9891 C.3     1  UNL1        0.0769
     26 C         139.0250  144.7758  164.2341 C.3     1  UNL1        0.0437
     27 C         140.3895  144.2203  164.5160 C.ar    1  UNL1       -0.0186
     28 C         140.5381  142.9864  165.3558 C.ar    1  UNL1       -0.0041
     29 C         141.9027  142.4309  165.6377 C.ar    1  UNL1        0.0020
     30 C         143.1186  143.1093  165.0798 C.ar    1  UNL1        0.0296
     31 C         142.9699  144.3433  164.2399 C.ar    1  UNL1        0.1398
     32 F         144.1858  145.0217  163.6819 F       1  UNL1       -0.2042
     33 C         141.6054  144.8987  163.9580 C.ar    1  UNL1        0.0254
@<TRIPOS>BOND
     1    23    24    3
     2    24    17    1
     3    17    18   ar
     4    18    19   ar
     5    19    20   ar
     6    20    14    1
     7    14    15    2
     8    14    16    2
     9    14    12    1
    10    12    11    1
    11    11    10    1
    12    10     1    1
    13     1     2    1
    14     2     3    1
    15     3     4    1
    16     4     5    1
    17     5    25    1
    18    25    26    1
    19    26    27    1
    20    27    28   ar
    21    28    29   ar
    22    29    30   ar
    23    30    31   ar
    24    31    32    1
    25    31    33   ar
    26     5     6    1
    27     6     7    1
    28     7     8    1
    29     7     9    1
    30    20    21   ar
    31    21    22   ar
    32    22    17   ar
    33     8     1    1
    34     9     3    1
    35    33    27   ar
    36    12    13    1
@<TRIPOS>MOLECULE
*****
 33 36 0 0 0
SMALL
GASTEIGER

@<TRIPOS>ATOM
      1 N         140.7922  144.1156  160.4461 N.3     1  UNL1       -0.2673
      2 C         139.7474  143.0475  160.3145 C.3     1  UNL1        0.1035
      3 C         140.1555  141.6257  160.0656 C.3     1  UNL1        0.1470
      4 C         140.5636  140.2039  159.8167 C.3     1  UNL1        0.1035
      5 N         142.0166  139.8502  159.6995 N.3     1  UNL1       -0.2682
      6 C         143.0615  140.9184  159.8311 C.3     1  UNL1        0.1035
      7 C         142.6534  142.3402  160.0799 C.3     1  UNL1        0.1470
      8 C         142.2452  143.7619  160.3288 C.3     1  UNL1        0.1035
      9 O         141.6085  141.2721  159.9483 O.3     1  UNL1       -0.3530
     10 C         140.3841  145.5374  160.6949 C.3     1  UNL1        0.0913
     11 C         139.6810  145.9040  161.9682 C.3     1  UNL1        0.1087
     12 N         140.2444  145.4680  163.2884 N.3     1  UNL1       -0.1780
     13 H         141.2574  145.4264  163.1769 H       1  UNL1        0.1488
     14 S         139.8208  144.1607  163.8896 S.O2    1  UNL1        0.0603
     15 O         138.3867  144.5957  163.8250 O.2     1  UNL1       -0.1530
     16 O         141.2549  143.7258  163.9541 O.2     1  UNL1       -0.1530
     17 C         138.5500  140.2387  165.6932 C.ar    1  UNL1        0.0685
     18 C         139.6171  141.0584  166.3562 C.ar    1  UNL1        0.0116
     19 C         140.0407  142.3658  165.7550 C.ar    1  UNL1        0.0206
     20 C         139.3972  142.8534  164.4908 C.ar    1  UNL1        0.1220
     21 C         138.3302  142.0337  163.8278 C.ar    1  UNL1        0.0206
     22 C         137.9066  140.7264  164.4290 C.ar    1  UNL1        0.0116
     23 N         137.7029  137.6241  166.8957 N.1     1  UNL1       -0.1908
     24 C         138.1265  138.9314  166.2944 C.1     1  UNL1        0.1004
     25 C         142.4248  138.4285  159.4506 C.3     1  UNL1        0.0769
     26 C         142.9813  137.6008  160.5710 C.3     1  UNL1        0.0437
     27 C         142.6752  137.9623  161.9942 C.ar    1  UNL1       -0.0186
     28 C         141.3501  137.5944  162.5931 C.ar    1  UNL1       -0.0041
     29 C         141.0439  137.9560  164.0164 C.ar    1  UNL1        0.0020
     30 C         142.0629  138.6855  164.8407 C.ar    1  UNL1        0.0296
     31 C         143.3881  139.0534  164.2418 C.ar    1  UNL1        0.1398
     32 F         144.4071  139.7828  165.0661 F       1  UNL1       -0.2042
     33 C         143.6942  138.6918  162.8186 C.ar    1  UNL1        0.0254
@<TRIPOS>BOND
     1    23    24    3
     2    24    17    1
     3    17    18   ar
     4    18    19   ar
     5    19    20   ar
     6    20    14    1
     7    14    15    2
     8    14    16    2
     9    14    12    1
    10    12    11    1
    11    11    10    1
    12    10     1    1
    13     1     2    1
    14     2     3    1
    15     3     4    1
    16     4     5    1
    17     5    25    1
    18    25    26    1
    19    26    27    1
    20    27    28   ar
    21    28    29   ar
    22    29    30   ar
    23    30    31   ar
    24    31    32    1
    25    31    33   ar
    26     5     6    1
    27     6     7    1
    28     7     8    1
    29     7     9    1
    30    20    21   ar
    31    21    22   ar
    32    22    17   ar
    33     8     1    1
    34     9     3    1
    35    33    27   ar
    36    12    13    1
@<TRIPOS>MOLECULE
*****
 33 36 0 0 0
SMALL
GASTEIGER

@<TRIPOS>ATOM
      1 N         143.2125  140.3368  160.4356 N.3     1  UNL1       -0.2673
      2 C         143.8503  141.4597  161.1986 C.3     1  UNL1        0.1035
      3 C         143.1495  142.7809  161.3145 C.3     1  UNL1        0.1470
      4 C         142.4487  144.1021  161.4304 C.3     1  UNL1        0.1035
      5 N         141.1101  144.3003  160.7832 N.3     1  UNL1       -0.2682
      6 C         140.4722  143.1773  160.0202 C.3     1  UNL1        0.1035
      7 C         141.1731  141.8561  159.9044 C.3     1  UNL1        0.1470
      8 C         141.8739  140.5350  159.7885 C.3     1  UNL1        0.1035
      9 O         141.8109  142.9791  160.6674 O.3     1  UNL1       -0.3530
     10 C         143.9133  139.0156  160.3198 C.3     1  UNL1        0.0913
     11 C         143.9485  138.0800  161.4916 C.3     1  UNL1        0.1087
     12 N         142.7863  138.0193  162.4381 N.3     1  UNL1       -0.1780
     13 H         141.9576  138.2808  161.9040 H       1  UNL1        0.1488
     14 S         142.7851  138.8615  163.6793 S.O2    1  UNL1        0.0603
     15 O         144.2847  138.8919  163.6601 O.2     1  UNL1       -0.1530
     16 O         141.2856  138.8312  163.6984 O.2     1  UNL1       -0.1530
     17 C         142.7815  141.3884  167.4028 C.ar    1  UNL1        0.0685
     18 C         142.8734  142.0395  166.0547 C.ar    1  UNL1        0.0116
     19 C         142.8746  141.1972  164.8135 C.ar    1  UNL1        0.0206
     20 C         142.7839  139.7038  164.9204 C.ar    1  UNL1        0.1220
     21 C         142.6920  139.0527  166.2687 C.ar    1  UNL1        0.0206
     22 C         142.6908  139.8949  167.5098 C.ar    1  UNL1        0.0116
     23 N         142.7791  143.0729  169.8853 N.1     1  UNL1       -0.1908
     24 C         142.7802  142.2306  168.6440 C.1     1  UNL1        0.1004
     25 C         140.4093  145.6214  160.8991 C.3     1  UNL1        0.0769
     26 C         139.4858  145.8820  162.0521 C.3     1  UNL1        0.0437
     27 C         139.1530  144.7775  163.0109 C.ar    1  UNL1       -0.0186
     28 C         139.8682  144.6853  164.3262 C.ar    1  UNL1       -0.0041
     29 C         139.5354  143.5807  165.2850 C.ar    1  UNL1        0.0020
     30 C         138.4874  142.5685  164.9286 C.ar    1  UNL1        0.0296
     31 C         137.7722  142.6608  163.6132 C.ar    1  UNL1        0.1398
     32 F         136.7242  141.6485  163.2568 F       1  UNL1       -0.2042
     33 C         138.1050  143.7653  162.6544 C.ar    1  UNL1        0.0254
@<TRIPOS>BOND
     1    23    24    3
     2    24    17    1
     3    17    18   ar
     4    18    19   ar
     5    19    20   ar
     6    20    14    1
     7    14    15    2
     8    14    16    2
     9    14    12    1
    10    12    11    1
    11    11    10    1
    12    10     1    1
    13     1     2    1
    14     2     3    1
    15     3     4    1
    16     4     5    1
    17     5    25    1
    18    25    26    1
    19    26    27    1
    20    27    28   ar
    21    28    29   ar
    22    29    30   ar
    23    30    31   ar
    24    31    32    1
    25    31    33   ar
    26     5     6    1
    27     6     7    1
    28     7     8    1
    29     7     9    1
    30    20    21   ar
    31    21    22   ar
    32    22    17   ar
    33     8     1    1
    34     9     3    1
    35    33    27   ar
    36    12    13    1
@<TRIPOS>MOLECULE
*****
 33 36 0 0 0
SMALL
GASTEIGER

@<TRIPOS>ATOM
      1 N         140.4794  142.9518  159.5432 N.3     1  UNL1       -0.2673
      2 C         141.8454  142.5482  160.0134 C.3     1  UNL1        0.1035
      3 C         142.0463  141.2212  160.6831 C.3     1  UNL1        0.1470
      4 C         142.2472  139.8941  161.3528 C.3     1  UNL1        0.1035
      5 N         141.0821  138.9706  161.5524 N.3     1  UNL1       -0.2682
      6 C         139.7161  139.3743  161.0823 C.3     1  UNL1        0.1035
      7 C         139.5152  140.7014  160.4125 C.3     1  UNL1        0.1470
      8 C         139.3143  142.0284  159.7428 C.3     1  UNL1        0.1035
      9 O         140.8812  140.2977  160.8827 O.3     1  UNL1       -0.3530
     10 C         140.2784  144.2789  158.8735 C.3     1  UNL1        0.0913
     11 C         140.4795  145.5478  159.6476 C.3     1  UNL1        0.1087
     12 N         139.5641  145.8841  160.7874 N.3     1  UNL1       -0.1780
     13 H         139.6355  146.8908  160.9353 H       1  UNL1        0.1488
     14 S         139.7620  145.2348  162.1250 S.O2    1  UNL1        0.0603
     15 O         141.2409  145.4602  162.0156 O.2     1  UNL1       -0.1530
     16 O         138.2831  145.0093  162.2344 O.2     1  UNL1       -0.1530
     17 C         140.3557  143.2868  166.1378 C.ar    1  UNL1        0.0685
     18 C         141.3749  143.0969  165.0538 C.ar    1  UNL1        0.0116
     19 C         141.1770  143.7462  163.7162 C.ar    1  UNL1        0.0206
     20 C         139.9599  144.5854  163.4626 C.ar    1  UNL1        0.1220
     21 C         138.9407  144.7753  164.5467 C.ar    1  UNL1        0.0206
     22 C         139.1386  144.1260  165.8842 C.ar    1  UNL1        0.0116
     23 N         140.7516  141.9881  168.8130 N.1     1  UNL1       -0.1908
     24 C         140.5537  142.6375  167.4754 C.1     1  UNL1        0.1004
     25 C         141.2830  137.6436  162.2222 C.3     1  UNL1        0.0769
     26 C         141.3500  137.5611  163.7184 C.3     1  UNL1        0.0437
     27 C         140.2300  138.1113  164.5508 C.ar    1  UNL1       -0.0186
     28 C         140.0167  139.5936  164.6355 C.ar    1  UNL1       -0.0041
     29 C         138.8967  140.1438  165.4679 C.ar    1  UNL1        0.0020
     30 C         137.9900  139.2117  166.2156 C.ar    1  UNL1        0.0296
     31 C         138.2034  137.7293  166.1309 C.ar    1  UNL1        0.1398
     32 F         137.2967  136.7971  166.8785 F       1  UNL1       -0.2042
     33 C         139.3234  137.1791  165.2985 C.ar    1  UNL1        0.0254
@<TRIPOS>BOND
     1    23    24    3
     2    24    17    1
     3    17    18   ar
     4    18    19   ar
     5    19    20   ar
     6    20    14    1
     7    14    15    2
     8    14    16    2
     9    14    12    1
    10    12    11    1
    11    11    10    1
    12    10     1    1
    13     1     2    1
    14     2     3    1
    15     3     4    1
    16     4     5    1
    17     5    25    1
    18    25    26    1
    19    26    27    1
    20    27    28   ar
    21    28    29   ar
    22    29    30   ar
    23    30    31   ar
    24    31    32    1
    25    31    33   ar
    26     5     6    1
    27     6     7    1
    28     7     8    1
    29     7     9    1
    30    20    21   ar
    31    21    22   ar
    32    22    17   ar
    33     8     1    1
    34     9     3    1
    35    33    27   ar
    36    12    13    1
@<TRIPOS>MOLECULE
*****
 33 36 0 0 0
SMALL
GASTEIGER

@<TRIPOS>ATOM
      1 N         143.0208  139.0038  159.8772 N.3     1  UNL1       -0.2673
      2 C         143.2687  138.3691  161.2135 C.3     1  UNL1        0.1035
      3 C         143.9009  139.1655  162.3163 C.3     1  UNL1        0.1470
      4 C         144.5330  139.9619  163.4191 C.3     1  UNL1        0.1035
      5 N         144.9173  141.3929  163.1856 N.3     1  UNL1       -0.2682
      6 C         144.6694  142.0275  161.8492 C.3     1  UNL1        0.1035
      7 C         144.0372  141.2312  160.7465 C.3     1  UNL1        0.1470
      8 C         143.4051  140.4348  159.6437 C.3     1  UNL1        0.1035
      9 O         144.2851  140.5965  162.0828 O.3     1  UNL1       -0.3530
     10 C         142.3886  138.2074  158.7744 C.3     1  UNL1        0.0913
     11 C         140.9103  138.2972  158.5368 C.3     1  UNL1        0.1087
     12 N         140.1108  139.3867  159.1881 N.3     1  UNL1       -0.1780
     13 H         140.6603  140.2424  159.1092 H       1  UNL1        0.1488
     14 S         139.7068  139.2625  160.6273 S.O2    1  UNL1        0.0603
     15 O         139.2305  137.8631  160.3728 O.2     1  UNL1       -0.1530
     16 O         140.1831  140.6619  160.8817 O.2     1  UNL1       -0.1530
     17 C         138.4948  138.8900  164.9449 C.ar    1  UNL1        0.0685
     18 C         138.2597  140.1753  164.2082 C.ar    1  UNL1        0.0116
     19 C         138.6637  140.2995  162.7689 C.ar    1  UNL1        0.0206
     20 C         139.3028  139.1384  162.0664 C.ar    1  UNL1        0.1220
     21 C         139.5379  137.8531  162.8033 C.ar    1  UNL1        0.0206
     22 C         139.1339  137.7290  164.2425 C.ar    1  UNL1        0.0116
     23 N         137.6867  138.6418  167.8234 N.1     1  UNL1       -0.1908
     24 C         138.0908  138.7659  166.3841 C.1     1  UNL1        0.1004
     25 C         145.5495  142.1892  164.2884 C.3     1  UNL1        0.0769
     26 C         144.7417  143.2090  165.0352 C.3     1  UNL1        0.0437
     27 C         143.3466  142.8823  165.4788 C.ar    1  UNL1       -0.0186
     28 C         143.1194  142.1879  166.7888 C.ar    1  UNL1       -0.0041
     29 C         141.7242  141.8612  167.2324 C.ar    1  UNL1        0.0020
     30 C         140.5562  142.2289  166.3660 C.ar    1  UNL1        0.0296
     31 C         140.7835  142.9234  165.0560 C.ar    1  UNL1        0.1398
     32 F         139.6155  143.2911  164.1896 F       1  UNL1       -0.2042
     33 C         142.1786  143.2501  164.6124 C.ar    1  UNL1        0.0254
@<TRIPOS>BOND
     1    23    24    3
     2    24    17    1
     3    17    18   ar
     4    18    19   ar
     5    19    20   ar
     6    20    14    1
     7    14    15    2
     8    14    16    2
     9    14    12    1
    10    12    11    1
    11    11    10    1
    12    10     1    1
    13     1     2    1
    14     2     3    1
    15     3     4    1
    16     4     5    1
    17     5    25    1
    18    25    26    1
    19    26    27    1
    20    27    28   ar
    21    28    29   ar
    22    29    30   ar
    23    30    31   ar
    24    31    32    1
    25    31    33   ar
    26     5     6    1
    27     6     7    1
    28     7     8    1
    29     7     9    1
    30    20    21   ar
    31    21    22   ar
    32    22    17   ar
    33     8     1    1
    34     9     3    1
    35    33    27   ar
    36    12    13    1
@<TRIPOS>MOLECULE
*****
 33 36 0 0 0
SMALL
GASTEIGER

@<TRIPOS>ATOM
      1 N         139.7051  140.7395  160.0334 N.3     1  UNL1       -0.2673
      2 C         139.9572  142.1284  160.5407 C.3     1  UNL1        0.1035
      3 C         141.3180  142.5071  161.0454 C.3     1  UNL1        0.1470
      4 C         142.6789  142.8858  161.5501 C.3     1  UNL1        0.1035
      5 N         143.7876  141.8755  161.5475 N.3     1  UNL1       -0.2682
      6 C         143.5355  140.4866  161.0402 C.3     1  UNL1        0.1035
      7 C         142.1747  140.1079  160.5355 C.3     1  UNL1        0.1470
      8 C         140.8139  139.7293  160.0308 C.3     1  UNL1        0.1035
      9 O         142.4268  141.4968  161.0428 O.3     1  UNL1       -0.3530
     10 C         138.3443  140.3608  159.5287 C.3     1  UNL1        0.0913
     11 C         137.2789  139.9322  160.4937 C.3     1  UNL1        0.1087
     12 N         137.5686  138.8619  161.5039 N.3     1  UNL1       -0.1780
     13 H         136.7113  138.3201  161.6129 H       1  UNL1        0.1488
     14 S         138.0227  139.2359  162.8837 S.O2    1  UNL1        0.0603
     15 O         138.6890  137.8996  163.0266 O.2     1  UNL1       -0.1530
     16 O         137.3565  140.5722  162.7407 O.2     1  UNL1       -0.1530
     17 C         139.3853  140.3581  167.0230 C.ar    1  UNL1        0.0685
     18 C         138.8654  138.9772  166.7532 C.ar    1  UNL1        0.0116
     19 C         138.4112  138.6031  165.3734 C.ar    1  UNL1        0.0206
     20 C         138.4769  139.6099  164.2634 C.ar    1  UNL1        0.1220
     21 C         138.9968  140.9909  164.5333 C.ar    1  UNL1        0.0206
     22 C         139.4510  141.3649  165.9131 C.ar    1  UNL1        0.0116
     23 N         140.2936  141.1062  169.7826 N.1     1  UNL1       -0.1908
     24 C         139.8395  140.7322  168.4028 C.1     1  UNL1        0.1004
     25 C         145.1485  142.2542  162.0522 C.3     1  UNL1        0.0769
     26 C         145.7113  141.5809  163.2688 C.3     1  UNL1        0.0437
     27 C         144.7895  141.0512  164.3269 C.ar    1  UNL1       -0.0186
     28 C         144.6582  139.5715  164.5348 C.ar    1  UNL1       -0.0041
     29 C         143.7364  139.0417  165.5930 C.ar    1  UNL1        0.0020
     30 C         142.9459  139.9917  166.4431 C.ar    1  UNL1        0.0296
     31 C         143.0773  141.4714  166.2352 C.ar    1  UNL1        0.1398
     32 F         142.2868  142.4213  167.0853 F       1  UNL1       -0.2042
     33 C         143.9991  142.0011  165.1771 C.ar    1  UNL1        0.0254
@<TRIPOS>BOND
     1    23    24    3
     2    24    17    1
     3    17    18   ar
     4    18    19   ar
     5    19    20   ar
     6    20    14    1
     7    14    15    2
     8    14    16    2
     9    14    12    1
    10    12    11    1
    11    11    10    1
    12    10     1    1
    13     1     2    1
    14     2     3    1
    15     3     4    1
    16     4     5    1
    17     5    25    1
    18    25    26    1
    19    26    27    1
    20    27    28   ar
    21    28    29   ar
    22    29    30   ar
    23    30    31   ar
    24    31    32    1
    25    31    33   ar
    26     5     6    1
    27     6     7    1
    28     7     8    1
    29     7     9    1
    30    20    21   ar
    31    21    22   ar
    32    22    17   ar
    33     8     1    1
    34     9     3    1
    35    33    27   ar
    36    12    13    1
