@<TRIPOS>MOLECULE
*****
 38 42 0 0 0
SMALL
GASTEIGER

@<TRIPOS>ATOM
      1 N         142.6763  143.4112  162.2175 N.ar    1  UNL1       -0.2900
      2 C         143.4868  142.7285  161.1559 C.ar    1  UNL1        0.0891
      3 C         143.2117  143.0061  159.7077 C.ar    1  UNL1        0.1101
      4 C         142.1262  143.9663  159.3211 C.ar    1  UNL1        0.2043
      5 O         141.8511  144.2439  157.8729 O.2     1  UNL1       -0.2863
      6 C         141.3157  144.6491  160.3828 C.ar    1  UNL1        0.0736
      7 C         140.2301  145.6094  159.9962 C.ar    1  UNL1        0.0078
      8 C         139.4197  146.2920  161.0578 C.ar    1  UNL1        0.0209
      9 C         139.6948  146.0144  162.5060 C.ar    1  UNL1        0.1005
     10 N         140.7803  145.0542  162.8926 N.ar    1  UNL1       -0.2263
     11 C         141.5908  144.3715  161.8310 C.ar    1  UNL1        0.1507
     12 C         142.2037  142.1437  165.9485 C.ar    1  UNL1        0.0014
     13 C         143.5016  142.5784  166.5621 C.ar    1  UNL1        0.0001
     14 C         144.5244  143.2906  165.7275 C.ar    1  UNL1        0.0015
     15 C         144.2493  143.5682  164.2793 C.ar    1  UNL1        0.0176
     16 C         142.9514  143.1336  163.6657 C.ar    1  UNL1        0.0654
     17 C         141.9286  142.4213  164.5003 C.ar    1  UNL1        0.0176
     18 C         139.2748  139.6788  166.9953 C.ar    1  UNL1        0.0347
     19 C         139.1353  140.0070  168.4523 C.ar    1  UNL1        0.0028
     20 C         140.0186  141.0474  169.0747 C.ar    1  UNL1        0.0001
     21 C         141.0414  141.7596  168.2400 C.ar    1  UNL1        0.0000
     22 C         141.1809  141.4315  166.7831 C.ar    1  UNL1        0.0001
     23 C         140.2976  140.3911  166.1607 C.ar    1  UNL1        0.0028
     24 C         138.7590  138.0373  165.0486 C.3     1  UNL1        0.0773
     25 C         138.3915  138.6384  166.3729 C.2     1  UNL1        0.1735
     26 O         137.1408  138.1991  167.0748 O.2     1  UNL1       -0.2913
     27 C         144.0222  142.3233  158.6460 C.2     1  UNL1        0.2552
     28 O         144.2145  140.8363  158.6894 O.2     1  UNL1       -0.2696
     29 N         144.6403  143.1276  157.5410 N.am    1  UNL1       -0.2650
     30 H         144.5141  144.1035  157.5125 H       1  UNL1        0.1566
     31 C         145.4508  142.4448  156.4794 C.ar    1  UNL1        0.1458
     32 N         144.7635  141.7620  155.3342 N.ar    1  UNL1       -0.2281
     33 C         145.5740  141.0792  154.2726 C.ar    1  UNL1        0.1012
     34 C         147.0716  141.0793  154.3562 C.ar    1  UNL1        0.0330
     35 C         147.7589  141.7621  155.5014 C.ar    1  UNL1        0.0725
     36 CL        149.2565  141.7621  155.5850 Cl      1  UNL1       -0.0812
     37 C         146.9484  142.4449  156.5630 C.ar    1  UNL1        0.0999
     38 CL        147.6356  143.1277  157.7082 Cl      1  UNL1       -0.0784
@<TRIPOS>BOND
     1    24    25    1
     2    25    26    2
     3    25    18    1
     4    18    19   ar
     5    19    20   ar
     6    20    21   ar
     7    21    22   ar
     8    22    12    1
     9    12    13   ar
    10    13    14   ar
    11    14    15   ar
    12    15    16   ar
    13    16     1    1
    14     1     2   ar
    15     2     3   ar
    16     3    27    1
    17    27    28    2
    18    27    29   am
    19    29    31    1
    20    31    32   ar
    21    32    33   ar
    22    33    34   ar
    23    34    35   ar
    24    35    36    1
    25    35    37   ar
    26    37    38    1
    27     3     4   ar
    28     4     5    2
    29     4     6   ar
    30     6     7   ar
    31     7     8   ar
    32     8     9   ar
    33     9    10   ar
    34    10    11   ar
    35    16    17   ar
    36    22    23   ar
    37    23    18   ar
    38    17    12   ar
    39    11     1   ar
    40    37    31   ar
    41    11     6   ar
    42    29    30    1
@<TRIPOS>MOLECULE
*****
 38 42 0 0 0
SMALL
GASTEIGER

@<TRIPOS>ATOM
      1 N         142.9987  141.7645  161.7165 N.ar    1  UNL1       -0.2900
      2 C         143.7795  141.3481  160.5054 C.ar    1  UNL1        0.0891
      3 C         143.7041  142.1624  159.2480 C.ar    1  UNL1        0.1101
      4 C         142.8480  143.3932  159.2016 C.ar    1  UNL1        0.2043
      5 O         142.7726  144.2075  157.9442 O.2     1  UNL1       -0.2863
      6 C         142.0671  143.8097  160.4128 C.ar    1  UNL1        0.0736
      7 C         141.2110  145.0404  160.3665 C.ar    1  UNL1        0.0078
      8 C         140.4301  145.4568  161.5776 C.ar    1  UNL1        0.0209
      9 C         140.5055  144.6425  162.8351 C.ar    1  UNL1        0.1005
     10 N         141.3616  143.4117  162.8814 N.ar    1  UNL1       -0.2263
     11 C         142.1424  142.9953  161.6703 C.ar    1  UNL1        0.1507
     12 C         141.9052  139.8626  165.0237 C.ar    1  UNL1        0.0014
     13 C         143.2247  139.3215  165.4889 C.ar    1  UNL1        0.0001
     14 C         144.4687  139.5947  164.6966 C.ar    1  UNL1        0.0015
     15 C         144.3933  140.4090  163.4391 C.ar    1  UNL1        0.0176
     16 C         143.0740  140.9502  162.9740 C.ar    1  UNL1        0.0654
     17 C         141.8299  140.6770  163.7663 C.ar    1  UNL1        0.0176
     18 C         139.2903  139.8380  168.0088 C.ar    1  UNL1        0.0347
     19 C         138.1731  139.0430  167.4005 C.ar    1  UNL1        0.0028
     20 C         138.3001  138.5212  166.0000 C.ar    1  UNL1        0.0001
     21 C         139.5442  138.7944  165.2077 C.ar    1  UNL1        0.0000
     22 C         140.6612  139.5894  165.8160 C.ar    1  UNL1        0.0001
     23 C         140.5343  140.1112  167.2166 C.ar    1  UNL1        0.0028
     24 C         140.1203  141.4000  169.9118 C.3     1  UNL1        0.0773
     25 C         139.1633  140.3598  169.4094 C.2     1  UNL1        0.1735
     26 O         138.0795  139.8415  170.3075 O.2     1  UNL1       -0.2913
     27 C         144.4850  141.7460  158.0368 C.2     1  UNL1        0.2552
     28 O         144.7114  140.2903  157.7544 O.2     1  UNL1       -0.2696
     29 N         145.0394  142.7851  157.1080 N.am    1  UNL1       -0.2650
     30 H         144.8909  143.7406  157.2933 H       1  UNL1        0.1566
     31 C         145.8203  142.3686  155.8969 C.ar    1  UNL1        0.1458
     32 N         145.1020  141.9777  154.6394 N.ar    1  UNL1       -0.2281
     33 C         145.8828  141.5612  153.4283 C.ar    1  UNL1        0.1012
     34 C         147.3819  141.5356  153.4747 C.ar    1  UNL1        0.0330
     35 C         148.1002  141.9265  154.7321 C.ar    1  UNL1        0.0725
     36 CL        149.5992  141.9009  154.7785 Cl      1  UNL1       -0.0812
     37 C         147.3193  142.3430  155.9433 C.ar    1  UNL1        0.0999
     38 CL        148.0376  142.7339  157.2008 Cl      1  UNL1       -0.0784
@<TRIPOS>BOND
     1    24    25    1
     2    25    26    2
     3    25    18    1
     4    18    19   ar
     5    19    20   ar
     6    20    21   ar
     7    21    22   ar
     8    22    12    1
     9    12    13   ar
    10    13    14   ar
    11    14    15   ar
    12    15    16   ar
    13    16     1    1
    14     1     2   ar
    15     2     3   ar
    16     3    27    1
    17    27    28    2
    18    27    29   am
    19    29    31    1
    20    31    32   ar
    21    32    33   ar
    22    33    34   ar
    23    34    35   ar
    24    35    36    1
    25    35    37   ar
    26    37    38    1
    27     3     4   ar
    28     4     5    2
    29     4     6   ar
    30     6     7   ar
    31     7     8   ar
    32     8     9   ar
    33     9    10   ar
    34    10    11   ar
    35    16    17   ar
    36    22    23   ar
    37    23    18   ar
    38    17    12   ar
    39    11     1   ar
    40    37    31   ar
    41    11     6   ar
    42    29    30    1
@<TRIPOS>MOLECULE
*****
 38 42 0 0 0
SMALL
GASTEIGER

@<TRIPOS>ATOM
      1 N         141.1931  141.0339  162.7341 N.ar    1  UNL1       -0.2900
      2 C         140.3544  141.6168  161.6356 C.ar    1  UNL1        0.0891
      3 C         140.9888  142.4780  160.5841 C.ar    1  UNL1        0.1101
      4 C         142.4620  142.7563  160.6309 C.ar    1  UNL1        0.2043
      5 O         143.0964  143.6175  159.5794 O.2     1  UNL1       -0.2863
      6 C         143.3008  142.1733  161.7294 C.ar    1  UNL1        0.0736
      7 C         144.7740  142.4516  161.7763 C.ar    1  UNL1        0.0078
      8 C         145.6128  141.8686  162.8747 C.ar    1  UNL1        0.0209
      9 C         144.9783  141.0074  163.9263 C.ar    1  UNL1        0.1005
     10 N         143.5051  140.7292  163.8794 N.ar    1  UNL1       -0.2263
     11 C         142.6664  141.3121  162.7810 C.ar    1  UNL1        0.1507
     12 C         139.7666  139.8294  166.2362 C.ar    1  UNL1        0.0014
     13 C         139.2898  138.4502  165.8888 C.ar    1  UNL1        0.0001
     14 C         139.4474  137.9323  164.4899 C.ar    1  UNL1        0.0015
     15 C         140.0819  138.7936  163.4384 C.ar    1  UNL1        0.0176
     16 C         140.5587  140.1727  163.7857 C.ar    1  UNL1        0.0654
     17 C         140.4011  140.6906  165.1846 C.ar    1  UNL1        0.0176
     18 C         140.2085  142.0836  169.4724 C.ar    1  UNL1        0.0347
     19 C         139.2937  141.3831  170.4329 C.ar    1  UNL1        0.0028
     20 C         138.5366  140.1647  169.9944 C.ar    1  UNL1        0.0001
     21 C         138.6943  139.6468  168.5955 C.ar    1  UNL1        0.0000
     22 C         139.6090  140.3473  167.6350 C.ar    1  UNL1        0.0001
     23 C         140.3661  141.5657  168.0735 C.ar    1  UNL1        0.0028
     24 C         142.4311  143.2050  170.2158 C.3     1  UNL1        0.0773
     25 C         140.9656  143.3021  169.9108 C.2     1  UNL1        0.1735
     26 O         140.2573  144.6175  170.0442 O.2     1  UNL1       -0.2913
     27 C         140.1500  143.0610  159.4856 C.2     1  UNL1        0.2552
     28 O         138.7606  143.5442  159.7789 O.2     1  UNL1       -0.2696
     29 N         140.7005  143.1606  158.0939 N.am    1  UNL1       -0.2650
     30 H         141.6125  142.8435  157.9014 H       1  UNL1        0.1566
     31 C         139.8617  143.7436  156.9955 C.ar    1  UNL1        0.1458
     32 N         139.0418  142.8432  156.1196 N.ar    1  UNL1       -0.2281
     33 C         138.2030  143.4261  155.0212 C.ar    1  UNL1        0.1012
     34 C         138.1840  144.9094  154.7986 C.ar    1  UNL1        0.0330
     35 C         139.0039  145.8098  155.6745 C.ar    1  UNL1        0.0725
     36 CL        138.9849  147.2930  155.4519 Cl      1  UNL1       -0.0812
     37 C         139.8427  145.2269  156.7729 C.ar    1  UNL1        0.0999
     38 CL        140.6626  146.1272  157.6488 Cl      1  UNL1       -0.0784
@<TRIPOS>BOND
     1    24    25    1
     2    25    26    2
     3    25    18    1
     4    18    19   ar
     5    19    20   ar
     6    20    21   ar
     7    21    22   ar
     8    22    12    1
     9    12    13   ar
    10    13    14   ar
    11    14    15   ar
    12    15    16   ar
    13    16     1    1
    14     1     2   ar
    15     2     3   ar
    16     3    27    1
    17    27    28    2
    18    27    29   am
    19    29    31    1
    20    31    32   ar
    21    32    33   ar
    22    33    34   ar
    23    34    35   ar
    24    35    36    1
    25    35    37   ar
    26    37    38    1
    27     3     4   ar
    28     4     5    2
    29     4     6   ar
    30     6     7   ar
    31     7     8   ar
    32     8     9   ar
    33     9    10   ar
    34    10    11   ar
    35    16    17   ar
    36    22    23   ar
    37    23    18   ar
    38    17    12   ar
    39    11     1   ar
    40    37    31   ar
    41    11     6   ar
    42    29    30    1
@<TRIPOS>MOLECULE
*****
 38 42 0 0 0
SMALL
GASTEIGER

@<TRIPOS>ATOM
      1 N         141.0361  141.6741  161.4940 N.ar    1  UNL1       -0.2900
      2 C         142.0165  141.2323  160.4482 C.ar    1  UNL1        0.0891
      3 C         142.5631  142.2250  159.4655 C.ar    1  UNL1        0.1101
      4 C         142.1294  143.6595  159.5286 C.ar    1  UNL1        0.2043
      5 O         142.6760  144.6523  158.5459 O.2     1  UNL1       -0.2863
      6 C         141.1490  144.1014  160.5744 C.ar    1  UNL1        0.0736
      7 C         140.7153  145.5359  160.6375 C.ar    1  UNL1        0.0078
      8 C         139.7349  145.9777  161.6833 C.ar    1  UNL1        0.0209
      9 C         139.1883  144.9849  162.6660 C.ar    1  UNL1        0.1005
     10 N         139.6220  143.5504  162.6029 N.ar    1  UNL1       -0.2263
     11 C         140.6023  143.1086  161.5571 C.ar    1  UNL1        0.1507
     12 C         140.4107  139.7084  164.8844 C.ar    1  UNL1        0.0014
     13 C         139.3962  138.6959  164.4420 C.ar    1  UNL1        0.0001
     14 C         138.9284  138.6761  163.0170 C.ar    1  UNL1        0.0015
     15 C         139.4750  139.6688  162.0343 C.ar    1  UNL1        0.0176
     16 C         140.4895  140.6813  162.4767 C.ar    1  UNL1        0.0654
     17 C         140.9573  140.7011  163.9018 C.ar    1  UNL1        0.0176
     18 C         140.4379  140.2550  168.8151 C.ar    1  UNL1        0.0347
     19 C         141.8142  139.7677  169.1596 C.ar    1  UNL1        0.0028
     20 C         142.7226  139.2606  168.0789 C.ar    1  UNL1        0.0001
     21 C         142.2547  139.2409  166.6538 C.ar    1  UNL1        0.0000
     22 C         140.8785  139.7282  166.3095 C.ar    1  UNL1        0.0001
     23 C         139.9701  140.2352  167.3901 C.ar    1  UNL1        0.0028
     24 C         139.6571  142.1758  170.3807 C.3     1  UNL1        0.0773
     25 C         139.5296  140.7620  169.8957 C.2     1  UNL1        0.1735
     26 O         138.4937  139.8554  170.4914 O.2     1  UNL1       -0.2913
     27 C         143.5435  141.7832  158.4197 C.2     1  UNL1        0.2552
     28 O         143.9811  140.3497  158.3598 O.2     1  UNL1       -0.2696
     29 N         144.0864  142.7748  157.4339 N.am    1  UNL1       -0.2650
     30 H         143.7992  143.7157  157.4732 H       1  UNL1        0.1566
     31 C         145.0667  142.3330  156.3881 C.ar    1  UNL1        0.1458
     32 N         144.5741  141.8157  155.0691 N.ar    1  UNL1       -0.2281
     33 C         145.5545  141.3738  154.0234 C.ar    1  UNL1        0.1012
     34 C         147.0274  141.4492  154.2966 C.ar    1  UNL1        0.0330
     35 C         147.5201  141.9665  155.6156 C.ar    1  UNL1        0.0725
     36 CL        148.9930  142.0418  155.8888 Cl      1  UNL1       -0.0812
     37 C         146.5397  142.4084  156.6614 C.ar    1  UNL1        0.0999
     38 CL        147.0323  142.9256  157.9804 Cl      1  UNL1       -0.0784
@<TRIPOS>BOND
     1    24    25    1
     2    25    26    2
     3    25    18    1
     4    18    19   ar
     5    19    20   ar
     6    20    21   ar
     7    21    22   ar
     8    22    12    1
     9    12    13   ar
    10    13    14   ar
    11    14    15   ar
    12    15    16   ar
    13    16     1    1
    14     1     2   ar
    15     2     3   ar
    16     3    27    1
    17    27    28    2
    18    27    29   am
    19    29    31    1
    20    31    32   ar
    21    32    33   ar
    22    33    34   ar
    23    34    35   ar
    24    35    36    1
    25    35    37   ar
    26    37    38    1
    27     3     4   ar
    28     4     5    2
    29     4     6   ar
    30     6     7   ar
    31     7     8   ar
    32     8     9   ar
    33     9    10   ar
    34    10    11   ar
    35    16    17   ar
    36    22    23   ar
    37    23    18   ar
    38    17    12   ar
    39    11     1   ar
    40    37    31   ar
    41    11     6   ar
    42    29    30    1
@<TRIPOS>MOLECULE
*****
 38 42 0 0 0
SMALL
GASTEIGER

@<TRIPOS>ATOM
      1 N         142.4045  139.8002  160.9520 N.ar    1  UNL1       -0.2900
      2 C         142.2680  138.6273  160.0271 C.ar    1  UNL1        0.0891
      3 C         142.0456  138.8505  158.5605 C.ar    1  UNL1        0.1101
      4 C         141.9599  140.2466  158.0189 C.ar    1  UNL1        0.2043
      5 O         141.7376  140.4698  156.5524 O.2     1  UNL1       -0.2863
      6 C         142.0965  141.4196  158.9438 C.ar    1  UNL1        0.0736
      7 C         142.0107  142.8158  158.4022 C.ar    1  UNL1        0.0078
      8 C         142.1473  143.9887  159.3271 C.ar    1  UNL1        0.0209
      9 C         142.3696  143.7655  160.7937 C.ar    1  UNL1        0.1005
     10 N         142.4553  142.3694  161.3353 N.ar    1  UNL1       -0.2263
     11 C         142.3188  141.1964  160.4104 C.ar    1  UNL1        0.1507
     12 C         141.6785  139.3008  164.8216 C.ar    1  UNL1        0.0014
     13 C         143.0714  139.1306  165.3516 C.ar    1  UNL1        0.0001
     14 C         144.2420  139.1836  164.4152 C.ar    1  UNL1        0.0015
     15 C         144.0196  139.4068  162.9486 C.ar    1  UNL1        0.0176
     16 C         142.6268  139.5770  162.4185 C.ar    1  UNL1        0.0654
     17 C         141.4562  139.5240  163.3550 C.ar    1  UNL1        0.0176
     18 C         139.4167  139.8674  168.0329 C.ar    1  UNL1        0.0347
     19 C         138.1669  139.1418  167.6310 C.ar    1  UNL1        0.0028
     20 C         138.0877  138.4691  166.2926 C.ar    1  UNL1        0.0001
     21 C         139.2583  138.5222  165.3561 C.ar    1  UNL1        0.0000
     22 C         140.5080  139.2478  165.7581 C.ar    1  UNL1        0.0001
     23 C         140.5872  139.9205  167.0964 C.ar    1  UNL1        0.0028
     24 C         140.0709  141.9210  169.4838 C.3     1  UNL1        0.0773
     25 C         139.4959  140.5401  169.3713 C.2     1  UNL1        0.1735
     26 O         139.0002  139.8319  170.5971 O.2     1  UNL1       -0.2913
     27 C         141.9091  137.6774  157.6356 C.2     1  UNL1        0.2552
     28 O         140.5600  137.2961  157.1021 O.2     1  UNL1       -0.2696
     29 N         143.1215  136.8858  157.2442 N.am    1  UNL1       -0.2650
     30 H         144.0070  137.1361  157.5943 H       1  UNL1        0.1566
     31 C         142.9849  135.7129  156.3193 C.ar    1  UNL1        0.1458
     32 N         142.6402  135.9320  154.8759 N.ar    1  UNL1       -0.2281
     33 C         142.5036  134.7590  153.9511 C.ar    1  UNL1        0.1012
     34 C         142.7117  133.3669  154.4694 C.ar    1  UNL1        0.0330
     35 C         143.0564  133.1478  155.9127 C.ar    1  UNL1        0.0725
     36 CL        143.2645  131.7557  156.4311 Cl      1  UNL1       -0.0812
     37 C         143.1930  134.3208  156.8377 C.ar    1  UNL1        0.0999
     38 CL        143.5378  134.1016  158.2810 Cl      1  UNL1       -0.0784
@<TRIPOS>BOND
     1    24    25    1
     2    25    26    2
     3    25    18    1
     4    18    19   ar
     5    19    20   ar
     6    20    21   ar
     7    21    22   ar
     8    22    12    1
     9    12    13   ar
    10    13    14   ar
    11    14    15   ar
    12    15    16   ar
    13    16     1    1
    14     1     2   ar
    15     2     3   ar
    16     3    27    1
    17    27    28    2
    18    27    29   am
    19    29    31    1
    20    31    32   ar
    21    32    33   ar
    22    33    34   ar
    23    34    35   ar
    24    35    36    1
    25    35    37   ar
    26    37    38    1
    27     3     4   ar
    28     4     5    2
    29     4     6   ar
    30     6     7   ar
    31     7     8   ar
    32     8     9   ar
    33     9    10   ar
    34    10    11   ar
    35    16    17   ar
    36    22    23   ar
    37    23    18   ar
    38    17    12   ar
    39    11     1   ar
    40    37    31   ar
    41    11     6   ar
    42    29    30    1
@<TRIPOS>MOLECULE
*****
 38 42 0 0 0
SMALL
GASTEIGER

@<TRIPOS>ATOM
      1 N         142.5300  141.8157  162.0873 N.ar    1  UNL1       -0.2900
      2 C         141.7207  142.7742  161.2649 C.ar    1  UNL1        0.0891
      3 C         141.1670  142.3429  159.9392 C.ar    1  UNL1        0.1101
      4 C         141.4225  140.9531  159.4360 C.ar    1  UNL1        0.2043
      5 O         140.8687  140.5218  158.1103 O.2     1  UNL1       -0.2863
      6 C         142.2317  139.9946  160.2584 C.ar    1  UNL1        0.0736
      7 C         142.4872  138.6048  159.7552 C.ar    1  UNL1        0.0078
      8 C         143.2964  137.6464  160.5777 C.ar    1  UNL1        0.0209
      9 C         143.8502  138.0777  161.9033 C.ar    1  UNL1        0.1005
     10 N         143.5947  139.4674  162.4065 N.ar    1  UNL1       -0.2263
     11 C         142.7855  140.4259  161.5841 C.ar    1  UNL1        0.1507
     12 C         143.1087  142.0729  166.0051 C.ar    1  UNL1        0.0014
     13 C         144.1912  143.1096  166.0642 C.ar    1  UNL1        0.0001
     14 C         144.7199  143.7150  164.7978 C.ar    1  UNL1        0.0015
     15 C         144.1662  143.2837  163.4721 C.ar    1  UNL1        0.0176
     16 C         143.0837  142.2470  163.4129 C.ar    1  UNL1        0.0654
     17 C         142.5549  141.6416  164.6794 C.ar    1  UNL1        0.0176
     18 C         141.3617  141.7265  169.5516 C.ar    1  UNL1        0.0347
     19 C         141.5225  140.2567  169.8045 C.ar    1  UNL1        0.0028
     20 C         142.2121  139.3923  168.7909 C.ar    1  UNL1        0.0001
     21 C         142.7408  139.9978  167.5244 C.ar    1  UNL1        0.0000
     22 C         142.5800  141.4675  167.2715 C.ar    1  UNL1        0.0001
     23 C         141.8904  142.3318  168.2851 C.ar    1  UNL1        0.0028
     24 C         140.1342  143.9327  170.1649 C.3     1  UNL1        0.0773
     25 C         140.6721  142.5908  170.5652 C.2     1  UNL1        0.1735
     26 O         140.5204  142.1134  171.9790 O.2     1  UNL1       -0.2913
     27 C         140.3577  143.3014  159.1167 C.2     1  UNL1        0.2552
     28 O         139.1479  143.9616  159.7088 O.2     1  UNL1       -0.2696
     29 N         140.7583  143.5998  157.7024 N.am    1  UNL1       -0.2650
     30 H         141.5524  143.1664  157.3138 H       1  UNL1        0.1566
     31 C         139.9491  144.5583  156.8800 C.ar    1  UNL1        0.1458
     32 N         140.2171  146.0317  156.9655 N.ar    1  UNL1       -0.2281
     33 C         139.4079  146.9902  156.1432 C.ar    1  UNL1        0.1012
     34 C         138.3305  146.4754  155.2352 C.ar    1  UNL1        0.0330
     35 C         138.0625  145.0020  155.1497 C.ar    1  UNL1        0.0725
     36 CL        136.9852  144.4872  154.2417 Cl      1  UNL1       -0.0812
     37 C         138.8717  144.0434  155.9721 C.ar    1  UNL1        0.0999
     38 CL        138.6037  142.5701  155.8865 Cl      1  UNL1       -0.0784
@<TRIPOS>BOND
     1    24    25    1
     2    25    26    2
     3    25    18    1
     4    18    19   ar
     5    19    20   ar
     6    20    21   ar
     7    21    22   ar
     8    22    12    1
     9    12    13   ar
    10    13    14   ar
    11    14    15   ar
    12    15    16   ar
    13    16     1    1
    14     1     2   ar
    15     2     3   ar
    16     3    27    1
    17    27    28    2
    18    27    29   am
    19    29    31    1
    20    31    32   ar
    21    32    33   ar
    22    33    34   ar
    23    34    35   ar
    24    35    36    1
    25    35    37   ar
    26    37    38    1
    27     3     4   ar
    28     4     5    2
    29     4     6   ar
    30     6     7   ar
    31     7     8   ar
    32     8     9   ar
    33     9    10   ar
    34    10    11   ar
    35    16    17   ar
    36    22    23   ar
    37    23    18   ar
    38    17    12   ar
    39    11     1   ar
    40    37    31   ar
    41    11     6   ar
    42    29    30    1
@<TRIPOS>MOLECULE
*****
 38 42 0 0 0
SMALL
GASTEIGER

@<TRIPOS>ATOM
      1 N         140.5848  142.3984  161.5843 N.ar    1  UNL1       -0.2900
      2 C         139.5936  141.7440  160.6682 C.ar    1  UNL1        0.0891
      3 C         140.0486  141.1657  159.3610 C.ar    1  UNL1        0.1101
      4 C         141.4947  141.2419  158.9700 C.ar    1  UNL1        0.2043
      5 O         141.9496  140.6636  157.6629 O.2     1  UNL1       -0.2863
      6 C         142.4859  141.8963  159.8862 C.ar    1  UNL1        0.0736
      7 C         143.9320  141.9724  159.4951 C.ar    1  UNL1        0.0078
      8 C         144.9232  142.6268  160.4112 C.ar    1  UNL1        0.0209
      9 C         144.4682  143.2051  161.7184 C.ar    1  UNL1        0.1005
     10 N         143.0221  143.1290  162.1094 N.ar    1  UNL1       -0.2263
     11 C         142.0310  142.4746  161.1933 C.ar    1  UNL1        0.1507
     12 C         139.7892  142.7464  165.4568 C.ar    1  UNL1        0.0014
     13 C         139.2199  144.1333  165.5057 C.ar    1  UNL1        0.0001
     14 C         139.1056  144.9419  164.2475 C.ar    1  UNL1        0.0015
     15 C         139.5606  144.3636  162.9404 C.ar    1  UNL1        0.0176
     16 C         140.1298  142.9767  162.8914 C.ar    1  UNL1        0.0654
     17 C         140.2441  142.1681  164.1496 C.ar    1  UNL1        0.0176
     18 C         140.6437  141.7302  169.1967 C.ar    1  UNL1        0.0347
     19 C         140.1321  140.3205  169.2314 C.ar    1  UNL1        0.0028
     20 C         139.5061  139.7195  168.0078 C.ar    1  UNL1        0.0001
     21 C         139.3919  140.5282  166.7496 C.ar    1  UNL1        0.0000
     22 C         139.9035  141.9378  166.7150 C.ar    1  UNL1        0.0001
     23 C         140.5294  142.5388  167.9385 C.ar    1  UNL1        0.0028
     24 C         142.5567  143.0931  170.3069 C.3     1  UNL1        0.0773
     25 C         141.2696  142.3312  170.4202 C.2     1  UNL1        0.1735
     26 O         140.6085  142.1702  171.7569 O.2     1  UNL1       -0.2913
     27 C         139.0573  140.5113  158.4449 C.2     1  UNL1        0.2552
     28 O         137.9247  139.7098  159.0149 O.2     1  UNL1       -0.2696
     29 N         139.1987  140.6584  156.9589 N.am    1  UNL1       -0.2650
     30 H         139.9420  141.1844  156.5848 H       1  UNL1        0.1566
     31 C         138.2075  140.0039  156.0428 C.ar    1  UNL1        0.1458
     32 N         138.4683  138.6226  155.5193 N.ar    1  UNL1       -0.2281
     33 C         137.4771  137.9682  154.6033 C.ar    1  UNL1        0.1012
     34 C         136.2250  138.6950  154.2107 C.ar    1  UNL1        0.0330
     35 C         135.9642  140.0762  154.7342 C.ar    1  UNL1        0.0725
     36 CL        134.7121  140.8031  154.3416 Cl      1  UNL1       -0.0812
     37 C         136.9554  140.7308  155.6503 C.ar    1  UNL1        0.0999
     38 CL        136.6946  142.1120  156.1738 Cl      1  UNL1       -0.0784
@<TRIPOS>BOND
     1    24    25    1
     2    25    26    2
     3    25    18    1
     4    18    19   ar
     5    19    20   ar
     6    20    21   ar
     7    21    22   ar
     8    22    12    1
     9    12    13   ar
    10    13    14   ar
    11    14    15   ar
    12    15    16   ar
    13    16     1    1
    14     1     2   ar
    15     2     3   ar
    16     3    27    1
    17    27    28    2
    18    27    29   am
    19    29    31    1
    20    31    32   ar
    21    32    33   ar
    22    33    34   ar
    23    34    35   ar
    24    35    36    1
    25    35    37   ar
    26    37    38    1
    27     3     4   ar
    28     4     5    2
    29     4     6   ar
    30     6     7   ar
    31     7     8   ar
    32     8     9   ar
    33     9    10   ar
    34    10    11   ar
    35    16    17   ar
    36    22    23   ar
    37    23    18   ar
    38    17    12   ar
    39    11     1   ar
    40    37    31   ar
    41    11     6   ar
    42    29    30    1
@<TRIPOS>MOLECULE
*****
 38 42 0 0 0
SMALL
GASTEIGER

@<TRIPOS>ATOM
      1 N         141.8455  142.6417  160.5907 N.ar    1  UNL1       -0.2900
      2 C         141.7956  143.9042  159.7822 C.ar    1  UNL1        0.0891
      3 C         140.9203  143.9823  158.5666 C.ar    1  UNL1        0.1101
      4 C         140.0950  142.7979  158.1594 C.ar    1  UNL1        0.2043
      5 O         139.2197  142.8759  156.9437 O.2     1  UNL1       -0.2863
      6 C         140.1449  141.5353  158.9678 C.ar    1  UNL1        0.0736
      7 C         139.3195  140.3509  158.5606 C.ar    1  UNL1        0.0078
      8 C         139.3694  139.0884  159.3690 C.ar    1  UNL1        0.0209
      9 C         140.2447  139.0103  160.5847 C.ar    1  UNL1        0.1005
     10 N         141.0701  140.1947  160.9919 N.ar    1  UNL1       -0.2263
     11 C         141.0201  141.4572  160.1835 C.ar    1  UNL1        0.1507
     12 C         142.9830  142.5146  164.3907 C.ar    1  UNL1        0.0014
     13 C         144.4714  142.4075  164.2376 C.ar    1  UNL1        0.0001
     14 C         145.0844  142.3786  162.8689 C.ar    1  UNL1        0.0015
     15 C         144.2091  142.4567  161.6533 C.ar    1  UNL1        0.0176
     16 C         142.7208  142.5637  161.8063 C.ar    1  UNL1        0.0654
     17 C         142.1077  142.5926  163.1750 C.ar    1  UNL1        0.0176
     18 C         142.5934  142.2526  168.3314 C.ar    1  UNL1        0.0347
     19 C         141.1439  142.6015  168.4968 C.ar    1  UNL1        0.0028
     20 C         140.3075  142.9214  167.2934 C.ar    1  UNL1        0.0001
     21 C         140.9206  142.8924  165.9247 C.ar    1  UNL1        0.0000
     22 C         142.3700  142.5435  165.7594 C.ar    1  UNL1        0.0001
     23 C         143.2064  142.2236  166.9627 C.ar    1  UNL1        0.0028
     24 C         143.1445  140.6998  170.3402 C.3     1  UNL1        0.0773
     25 C         143.4298  141.9327  169.5347 C.2     1  UNL1        0.1735
     26 O         144.5515  142.8456  169.9326 O.2     1  UNL1       -0.2913
     27 C         140.8704  145.2449  157.7582 C.2     1  UNL1        0.2552
     28 O         142.0450  146.1779  157.7512 O.2     1  UNL1       -0.2696
     29 N         139.6461  145.5744  156.9567 N.am    1  UNL1       -0.2650
     30 H         138.8752  144.9620  156.9613 H       1  UNL1        0.1566
     31 C         139.5963  146.8369  156.1484 C.ar    1  UNL1        0.1458
     32 N         138.8693  148.0378  156.6770 N.ar    1  UNL1       -0.2281
     33 C         138.8194  149.3003  155.8687 C.ar    1  UNL1        0.1012
     34 C         139.4965  149.3620  154.5316 C.ar    1  UNL1        0.0330
     35 C         140.2235  148.1612  154.0029 C.ar    1  UNL1        0.0725
     36 CL        140.9006  148.2229  152.6659 Cl      1  UNL1       -0.0812
     37 C         140.2733  146.8986  154.8113 C.ar    1  UNL1        0.0999
     38 CL        141.0003  145.6978  154.2826 Cl      1  UNL1       -0.0784
@<TRIPOS>BOND
     1    24    25    1
     2    25    26    2
     3    25    18    1
     4    18    19   ar
     5    19    20   ar
     6    20    21   ar
     7    21    22   ar
     8    22    12    1
     9    12    13   ar
    10    13    14   ar
    11    14    15   ar
    12    15    16   ar
    13    16     1    1
    14     1     2   ar
    15     2     3   ar
    16     3    27    1
    17    27    28    2
    18    27    29   am
    19    29    31    1
    20    31    32   ar
    21    32    33   ar
    22    33    34   ar
    23    34    35   ar
    24    35    36    1
    25    35    37   ar
    26    37    38    1
    27     3     4   ar
    28     4     5    2
    29     4     6   ar
    30     6     7   ar
    31     7     8   ar
    32     8     9   ar
    33     9    10   ar
    34    10    11   ar
    35    16    17   ar
    36    22    23   ar
    37    23    18   ar
    38    17    12   ar
    39    11     1   ar
    40    37    31   ar
    41    11     6   ar
    42    29    30    1
@<TRIPOS>MOLECULE
*****
 38 42 0 0 0
SMALL
GASTEIGER

@<TRIPOS>ATOM
      1 N         142.8659  142.6789  160.8640 N.ar    1  UNL1       -0.2900
      2 C         143.9929  142.3619  159.9263 C.ar    1  UNL1        0.0891
      3 C         143.7019  141.9899  158.5025 C.ar    1  UNL1        0.1101
      4 C         142.2839  141.9348  158.0166 C.ar    1  UNL1        0.2043
      5 O         141.9930  141.5628  156.5928 O.2     1  UNL1       -0.2863
      6 C         141.1568  142.2518  158.9543 C.ar    1  UNL1        0.0736
      7 C         139.7389  142.1967  158.4683 C.ar    1  UNL1        0.0078
      8 C         138.6118  142.5136  159.4060 C.ar    1  UNL1        0.0209
      9 C         138.9028  142.8857  160.8297 C.ar    1  UNL1        0.1005
     10 N         140.3208  142.9407  161.3157 N.ar    1  UNL1       -0.2263
     11 C         141.4478  142.6238  160.3780 C.ar    1  UNL1        0.1507
     12 C         143.2741  142.4080  164.8023 C.ar    1  UNL1        0.0014
     13 C         143.7388  143.7949  165.1351 C.ar    1  UNL1        0.0001
     14 C         143.9125  144.8097  164.0442 C.ar    1  UNL1        0.0015
     15 C         143.6216  144.4377  162.6205 C.ar    1  UNL1        0.0176
     16 C         143.1569  143.0509  162.2877 C.ar    1  UNL1        0.0654
     17 C         142.9831  142.0360  163.3786 C.ar    1  UNL1        0.0176
     18 C         142.6852  140.8276  168.3946 C.ar    1  UNL1        0.0347
     19 C         142.7529  139.3636  168.0749 C.ar    1  UNL1        0.0028
     20 C         142.9944  138.9145  166.6642 C.ar    1  UNL1        0.0001
     21 C         143.1681  139.9293  165.5733 C.ar    1  UNL1        0.0000
     22 C         143.1004  141.3933  165.8931 C.ar    1  UNL1        0.0001
     23 C         142.8589  141.8424  167.3038 C.ar    1  UNL1        0.0028
     24 C         142.0239  142.6902  170.0809 C.3     1  UNL1        0.0773
     25 C         142.4438  141.2768  169.8053 C.2     1  UNL1        0.1735
     26 O         142.6222  140.3125  170.9403 O.2     1  UNL1       -0.2913
     27 C         144.8290  141.6729  157.5648 C.2     1  UNL1        0.2552
     28 O         145.0869  140.2533  157.1548 O.2     1  UNL1       -0.2696
     29 N         145.6982  142.7756  157.0371 N.am    1  UNL1       -0.2650
     30 H         145.5290  143.7074  157.3062 H       1  UNL1        0.1566
     31 C         146.8253  142.4586  156.0995 C.ar    1  UNL1        0.1458
     32 N         148.2008  142.2016  156.6398 N.ar    1  UNL1       -0.2281
     33 C         149.3278  141.8846  155.7022 C.ar    1  UNL1        0.1012
     34 C         149.0794  141.8247  154.2241 C.ar    1  UNL1        0.0330
     35 C         147.7040  142.0817  153.6837 C.ar    1  UNL1        0.0725
     36 CL        147.4556  142.0218  152.2056 Cl      1  UNL1       -0.0812
     37 C         146.5769  142.3987  154.6214 C.ar    1  UNL1        0.0999
     38 CL        145.2015  142.6558  154.0810 Cl      1  UNL1       -0.0784
@<TRIPOS>BOND
     1    24    25    1
     2    25    26    2
     3    25    18    1
     4    18    19   ar
     5    19    20   ar
     6    20    21   ar
     7    21    22   ar
     8    22    12    1
     9    12    13   ar
    10    13    14   ar
    11    14    15   ar
    12    15    16   ar
    13    16     1    1
    14     1     2   ar
    15     2     3   ar
    16     3    27    1
    17    27    28    2
    18    27    29   am
    19    29    31    1
    20    31    32   ar
    21    32    33   ar
    22    33    34   ar
    23    34    35   ar
    24    35    36    1
    25    35    37   ar
    26    37    38    1
    27     3     4   ar
    28     4     5    2
    29     4     6   ar
    30     6     7   ar
    31     7     8   ar
    32     8     9   ar
    33     9    10   ar
    34    10    11   ar
    35    16    17   ar
    36    22    23   ar
    37    23    18   ar
    38    17    12   ar
    39    11     1   ar
    40    37    31   ar
    41    11     6   ar
    42    29    30    1
