@<TRIPOS>MOLECULE
*****
 36 39 0 0 0
SMALL
GASTEIGER

@<TRIPOS>ATOM
      1 C         141.4094  137.8876  161.4626 C.ar    1  UNL1       -0.0021
      2 C         141.1468  137.4790  162.8818 C.ar    1  UNL1        0.0720
      3 N         139.7494  137.8957  163.2331 N.ar    1  UNL1       -0.3180
      4 C         139.1483  138.5619  162.0311 C.ar    1  UNL1        0.0600
      5 C         137.7992  139.1724  161.7916 C.ar    1  UNL1        0.0172
      6 C         137.4762  139.7779  160.4578 C.ar    1  UNL1        0.0015
      7 C         138.5022  139.7730  159.3636 C.ar    1  UNL1        0.0001
      8 C         139.8512  139.1625  159.6031 C.ar    1  UNL1        0.0012
      9 C         140.1742  138.5569  160.9368 C.ar    1  UNL1        0.0133
     10 C         142.6835  137.6660  160.7026 C.3     1  UNL1        0.0467
     11 C         144.0061  137.8824  161.3764 C.3     1  UNL1        0.0962
     12 N         144.5748  139.2661  161.4853 N.3     1  UNL1       -0.1790
     13 H         145.4248  139.1920  162.0442 H       1  UNL1        0.1488
     14 S         143.7552  140.3685  162.0878 S.O2    1  UNL1        0.0602
     15 O         143.9082  139.7421  163.4421 O.2     1  UNL1       -0.1530
     16 O         143.6022  140.9949  160.7334 O.2     1  UNL1       -0.1530
     17 C         141.2962  143.6757  163.8950 C.ar    1  UNL1        0.1388
     18 C         142.7727  143.6126  164.1518 C.ar    1  UNL1        0.0383
     19 C         143.5924  142.5103  163.5495 C.ar    1  UNL1        0.0230
     20 C         142.9356  141.4709  162.6902 C.ar    1  UNL1        0.1221
     21 C         141.4591  141.5339  162.4334 C.ar    1  UNL1        0.0230
     22 C         140.6393  142.6363  163.0358 C.ar    1  UNL1        0.0383
     23 C         138.9790  144.6956  164.4782 C.3     1  UNL1        0.2525
     24 O         140.4766  144.7781  164.4974 O.3     1  UNL1       -0.4714
     25 C         139.0719  137.6835  164.5545 C.3     1  UNL1        0.1920
     26 C         139.0335  138.7921  165.5643 C.2     1  UNL1        0.2492
     27 O         137.7256  139.4293  165.9291 O.2     1  UNL1       -0.2727
     28 N         140.3032  139.2635  166.2092 N.am    1  UNL1       -0.2823
     29 H         141.1617  138.8452  165.9697 H       1  UNL1        0.1549
     30 C         140.2647  140.3720  167.2189 C.ar    1  UNL1        0.0504
     31 C         140.5807  141.7778  166.8018 C.ar    1  UNL1        0.0155
     32 C         140.5422  142.8863  167.8116 C.ar    1  UNL1        0.0127
     33 C         140.1878  142.5891  169.2385 C.ar    1  UNL1        0.0578
     34 CL        140.1493  143.6977  170.2482 Cl      1  UNL1       -0.0822
     35 C         139.8718  141.1833  169.6556 C.ar    1  UNL1        0.0127
     36 C         139.9103  140.0747  168.6458 C.ar    1  UNL1        0.0155
@<TRIPOS>BOND
     1    23    24    1
     2    24    17    1
     3    17    18   ar
     4    18    19   ar
     5    19    20   ar
     6    20    14    1
     7    14    15    2
     8    14    16    2
     9    14    12    1
    10    12    11    1
    11    11    10    1
    12    10     1    1
    13     1     2   ar
    14     2     3   ar
    15     3    25    1
    16    25    26    1
    17    26    27    2
    18    26    28   am
    19    28    30    1
    20    30    31   ar
    21    31    32   ar
    22    32    33   ar
    23    33    34    1
    24    33    35   ar
    25    35    36   ar
    26     3     4   ar
    27     4     5   ar
    28     5     6   ar
    29     6     7   ar
    30     7     8   ar
    31     8     9   ar
    32    20    21   ar
    33    21    22   ar
    34    22    17   ar
    35     9     1   ar
    36    36    30   ar
    37     9     4   ar
    38    12    13    1
    39    28    29    1
@<TRIPOS>MOLECULE
*****
 36 39 0 0 0
SMALL
GASTEIGER

@<TRIPOS>ATOM
      1 C         138.8384  138.7143  161.7378 C.ar    1  UNL1       -0.0021
      2 C         138.8828  137.8814  162.9845 C.ar    1  UNL1        0.0720
      3 N         138.5314  138.7648  164.1448 N.ar    1  UNL1       -0.3180
      4 C         138.2698  140.1436  163.6151 C.ar    1  UNL1        0.0600
      5 C         137.8834  141.4234  164.2952 C.ar    1  UNL1        0.0172
      6 C         137.6867  142.6721  163.4876 C.ar    1  UNL1        0.0015
      7 C         137.8764  142.6408  162.0000 C.ar    1  UNL1        0.0001
      8 C         138.2629  141.3610  161.3199 C.ar    1  UNL1        0.0012
      9 C         138.4596  140.1124  162.1275 C.ar    1  UNL1        0.0133
     10 C         139.1229  138.2335  160.3457 C.3     1  UNL1        0.0467
     11 C         140.4175  138.5922  159.6782 C.3     1  UNL1        0.0962
     12 N         141.7193  138.3263  160.3745 N.3     1  UNL1       -0.1790
     13 H         141.6679  137.3762  160.7421 H       1  UNL1        0.1488
     14 S         142.1569  139.2060  161.5078 S.O2    1  UNL1        0.0602
     15 O         141.8274  140.4210  160.6921 O.2     1  UNL1       -0.1530
     16 O         142.4864  137.9911  162.3236 O.2     1  UNL1       -0.1530
     17 C         143.4697  141.8452  164.9081 C.ar    1  UNL1        0.1388
     18 C         144.1769  140.5479  164.6494 C.ar    1  UNL1        0.0383
     19 C         143.7393  139.6682  163.5160 C.ar    1  UNL1        0.0230
     20 C         142.5945  140.0857  162.6412 C.ar    1  UNL1        0.1221
     21 C         141.8873  141.3830  162.9000 C.ar    1  UNL1        0.0230
     22 C         142.3249  142.2628  164.0334 C.ar    1  UNL1        0.0383
     23 C         144.8022  143.8993  165.7770 C.3     1  UNL1        0.2525
     24 O         143.9073  142.7248  166.0415 O.3     1  UNL1       -0.4714
     25 C         138.4550  138.3434  165.5823 C.3     1  UNL1        0.1920
     26 C         139.1234  139.1681  166.6422 C.2     1  UNL1        0.2492
     27 O         138.5104  139.2751  168.0071 O.2     1  UNL1       -0.2727
     28 N         140.4047  139.8859  166.3372 N.am    1  UNL1       -0.2823
     29 H         140.8070  139.8158  165.4414 H       1  UNL1        0.1549
     30 C         141.0729  140.7106  167.3971 C.ar    1  UNL1        0.0504
     31 C         140.5443  142.0741  167.7310 C.ar    1  UNL1        0.0155
     32 C         141.2126  142.8987  168.7909 C.ar    1  UNL1        0.0127
     33 C         142.4095  142.3599  169.5169 C.ar    1  UNL1        0.0578
     34 CL        143.0777  143.1846  170.5768 Cl      1  UNL1       -0.0822
     35 C         142.9381  140.9964  169.1830 C.ar    1  UNL1        0.0127
     36 C         142.2698  140.1718  168.1230 C.ar    1  UNL1        0.0155
@<TRIPOS>BOND
     1    23    24    1
     2    24    17    1
     3    17    18   ar
     4    18    19   ar
     5    19    20   ar
     6    20    14    1
     7    14    15    2
     8    14    16    2
     9    14    12    1
    10    12    11    1
    11    11    10    1
    12    10     1    1
    13     1     2   ar
    14     2     3   ar
    15     3    25    1
    16    25    26    1
    17    26    27    2
    18    26    28   am
    19    28    30    1
    20    30    31   ar
    21    31    32   ar
    22    32    33   ar
    23    33    34    1
    24    33    35   ar
    25    35    36   ar
    26     3     4   ar
    27     4     5   ar
    28     5     6   ar
    29     6     7   ar
    30     7     8   ar
    31     8     9   ar
    32    20    21   ar
    33    21    22   ar
    34    22    17   ar
    35     9     1   ar
    36    36    30   ar
    37     9     4   ar
    38    12    13    1
    39    28    29    1
@<TRIPOS>MOLECULE
*****
 36 39 0 0 0
SMALL
GASTEIGER

@<TRIPOS>ATOM
      1 C         141.4219  144.3465  160.8964 C.ar    1  UNL1       -0.0021
      2 C         142.6050  144.3860  161.8176 C.ar    1  UNL1        0.0720
      3 N         143.2511  143.0324  161.8004 N.ar    1  UNL1       -0.3180
      4 C         142.4674  142.1564  160.8686 C.ar    1  UNL1        0.0600
      5 C         142.6371  140.7241  160.4567 C.ar    1  UNL1        0.0172
      6 C         141.6763  140.1040  159.4861 C.ar    1  UNL1        0.0015
      7 C         140.5457  140.9162  158.9273 C.ar    1  UNL1        0.0001
      8 C         140.3760  142.3484  159.3392 C.ar    1  UNL1        0.0012
      9 C         141.3368  142.9686  160.3099 C.ar    1  UNL1        0.0133
     10 C         140.4878  145.4851  160.6116 C.3     1  UNL1        0.0467
     11 C         139.7274  146.1297  161.7325 C.3     1  UNL1        0.0962
     12 N         138.4684  145.4965  162.2463 N.3     1  UNL1       -0.1790
     13 H         138.0378  146.1695  162.8803 H       1  UNL1        0.1488
     14 S         138.5316  144.1896  162.9798 S.O2    1  UNL1        0.0602
     15 O         139.2791  144.8534  164.0982 O.2     1  UNL1       -0.1530
     16 O         137.7840  143.5258  161.8615 O.2     1  UNL1       -0.1530
     17 C         138.7210  140.2688  165.1802 C.ar    1  UNL1        0.1388
     18 C         139.3378  141.4968  165.7814 C.ar    1  UNL1        0.0383
     19 C         139.2747  142.8037  165.0480 C.ar    1  UNL1        0.0230
     20 C         138.5947  142.8827  163.7133 C.ar    1  UNL1        0.1221
     21 C         137.9778  141.6547  163.1121 C.ar    1  UNL1        0.0230
     22 C         138.0409  140.3477  163.8455 C.ar    1  UNL1        0.0383
     23 C         138.8736  137.6754  165.1475 C.3     1  UNL1        0.2525
     24 O         138.7841  138.9619  165.9137 O.3     1  UNL1       -0.4714
     25 C         144.4675  142.6262  162.5785 C.3     1  UNL1        0.1920
     26 C         144.3160  141.8941  163.8790 C.2     1  UNL1        0.2492
     27 O         145.3883  140.9509  164.3381 O.2     1  UNL1       -0.2727
     28 N         143.0923  142.1052  164.7204 N.am    1  UNL1       -0.2823
     29 H         142.3886  142.7243  164.4192 H       1  UNL1        0.1549
     30 C         142.9409  141.3732  166.0208 C.ar    1  UNL1        0.0504
     31 C         142.9880  142.1278  167.3163 C.ar    1  UNL1        0.0155
     32 C         142.8366  141.3957  168.6167 C.ar    1  UNL1        0.0127
     33 C         142.6381  139.9088  168.6217 C.ar    1  UNL1        0.0578
     34 CL        142.4867  139.1768  169.9221 Cl      1  UNL1       -0.0822
     35 C         142.5909  139.1542  167.3262 C.ar    1  UNL1        0.0127
     36 C         142.7424  139.8864  166.0257 C.ar    1  UNL1        0.0155
@<TRIPOS>BOND
     1    23    24    1
     2    24    17    1
     3    17    18   ar
     4    18    19   ar
     5    19    20   ar
     6    20    14    1
     7    14    15    2
     8    14    16    2
     9    14    12    1
    10    12    11    1
    11    11    10    1
    12    10     1    1
    13     1     2   ar
    14     2     3   ar
    15     3    25    1
    16    25    26    1
    17    26    27    2
    18    26    28   am
    19    28    30    1
    20    30    31   ar
    21    31    32   ar
    22    32    33   ar
    23    33    34    1
    24    33    35   ar
    25    35    36   ar
    26     3     4   ar
    27     4     5   ar
    28     5     6   ar
    29     6     7   ar
    30     7     8   ar
    31     8     9   ar
    32    20    21   ar
    33    21    22   ar
    34    22    17   ar
    35     9     1   ar
    36    36    30   ar
    37     9     4   ar
    38    12    13    1
    39    28    29    1
@<TRIPOS>MOLECULE
*****
 36 39 0 0 0
SMALL
GASTEIGER

@<TRIPOS>ATOM
      1 C         141.2511  143.7347  160.6538 C.ar    1  UNL1       -0.0021
      2 C         142.5460  143.5343  161.3838 C.ar    1  UNL1        0.0720
      3 N         142.8221  142.0611  161.4417 N.ar    1  UNL1       -0.3180
      4 C         141.6979  141.3510  160.7476 C.ar    1  UNL1        0.0600
      5 C         141.4329  139.8962  160.4960 C.ar    1  UNL1        0.0172
      6 C         140.1969  139.4759  159.7574 C.ar    1  UNL1        0.0015
      7 C         139.2259  140.5103  159.2704 C.ar    1  UNL1        0.0001
      8 C         139.4909  141.9651  159.5220 C.ar    1  UNL1        0.0012
      9 C         140.7269  142.3854  160.2606 C.ar    1  UNL1        0.0133
     10 C         140.5954  145.0531  160.3673 C.3     1  UNL1        0.0467
     11 C         140.0602  145.8853  161.4948 C.3     1  UNL1        0.0962
     12 N         138.8269  145.4493  162.2290 N.3     1  UNL1       -0.1790
     13 H         138.6262  146.1706  162.9217 H       1  UNL1        0.1488
     14 S         138.8106  144.1362  162.9539 S.O2    1  UNL1        0.0602
     15 O         137.7705  143.6237  162.0024 O.2     1  UNL1       -0.1530
     16 O         139.8508  144.6487  163.9055 O.2     1  UNL1       -0.1530
     17 C         138.7619  140.1969  165.1288 C.ar    1  UNL1        0.1388
     18 C         139.3083  141.4198  165.8041 C.ar    1  UNL1        0.0383
     19 C         139.3245  142.7329  165.0792 C.ar    1  UNL1        0.0230
     20 C         138.7944  142.8232  163.6789 C.ar    1  UNL1        0.1221
     21 C         138.2480  141.6003  163.0036 C.ar    1  UNL1        0.0230
     22 C         138.2317  140.2871  163.7285 C.ar    1  UNL1        0.0383
     23 C         137.7607  138.6505  166.9607 C.3     1  UNL1        0.2525
     24 O         138.7456  138.8839  165.8537 O.3     1  UNL1       -0.4714
     25 C         144.0134  141.4118  162.0815 C.3     1  UNL1        0.1920
     26 C         144.0456  141.2014  163.5664 C.2     1  UNL1        0.2492
     27 O         145.3475  140.9184  164.2558 O.2     1  UNL1       -0.2727
     28 N         142.7760  141.2739  164.3619 N.am    1  UNL1       -0.2823
     29 H         141.9216  141.4597  163.9095 H       1  UNL1        0.1549
     30 C         142.8083  141.0635  165.8467 C.ar    1  UNL1        0.0504
     31 C         142.6277  139.6864  166.4132 C.ar    1  UNL1        0.0155
     32 C         142.6600  139.4761  167.8980 C.ar    1  UNL1        0.0127
     33 C         142.8729  140.6428  168.8164 C.ar    1  UNL1        0.0578
     34 CL        142.9052  140.4324  170.3012 Cl      1  UNL1       -0.0822
     35 C         143.0535  142.0199  168.2499 C.ar    1  UNL1        0.0127
     36 C         143.0212  142.2303  166.7650 C.ar    1  UNL1        0.0155
@<TRIPOS>BOND
     1    23    24    1
     2    24    17    1
     3    17    18   ar
     4    18    19   ar
     5    19    20   ar
     6    20    14    1
     7    14    15    2
     8    14    16    2
     9    14    12    1
    10    12    11    1
    11    11    10    1
    12    10     1    1
    13     1     2   ar
    14     2     3   ar
    15     3    25    1
    16    25    26    1
    17    26    27    2
    18    26    28   am
    19    28    30    1
    20    30    31   ar
    21    31    32   ar
    22    32    33   ar
    23    33    34    1
    24    33    35   ar
    25    35    36   ar
    26     3     4   ar
    27     4     5   ar
    28     5     6   ar
    29     6     7   ar
    30     7     8   ar
    31     8     9   ar
    32    20    21   ar
    33    21    22   ar
    34    22    17   ar
    35     9     1   ar
    36    36    30   ar
    37     9     4   ar
    38    12    13    1
    39    28    29    1
@<TRIPOS>MOLECULE
*****
 36 39 0 0 0
SMALL
GASTEIGER

@<TRIPOS>ATOM
      1 C         139.9368  137.7908  164.1921 C.ar    1  UNL1       -0.0021
      2 C         139.7359  137.7876  162.7056 C.ar    1  UNL1        0.0720
      3 N         141.0150  138.2374  162.0641 N.ar    1  UNL1       -0.3180
      4 C         142.0064  138.5186  163.1541 C.ar    1  UNL1        0.0600
      5 C         143.4298  138.9903  163.1189 C.ar    1  UNL1        0.0172
      6 C         144.1869  139.1859  164.3989 C.ar    1  UNL1        0.0015
      7 C         143.5205  138.9099  165.7141 C.ar    1  UNL1        0.0001
      8 C         142.0971  138.4382  165.7493 C.ar    1  UNL1        0.0012
      9 C         141.3400  138.2425  164.4693 C.ar    1  UNL1        0.0133
     10 C         138.9140  137.4092  165.2208 C.3     1  UNL1        0.0467
     11 C         138.3054  138.4615  166.0998 C.3     1  UNL1        0.0962
     12 N         137.7193  139.7006  165.4905 N.3     1  UNL1       -0.1790
     13 H         137.2526  139.4133  164.6302 H       1  UNL1        0.1488
     14 S         138.6091  140.8549  165.1357 S.O2    1  UNL1        0.0602
     15 O         137.8890  141.0084  163.8289 O.2     1  UNL1       -0.1530
     16 O         139.3292  140.7013  166.4427 O.2     1  UNL1       -0.1530
     17 C         141.2786  144.3178  164.0717 C.ar    1  UNL1        0.1388
     18 C         141.8103  142.9163  164.0164 C.ar    1  UNL1        0.0383
     19 C         140.9206  141.7620  164.3711 C.ar    1  UNL1        0.0230
     20 C         139.4989  142.0091  164.7810 C.ar    1  UNL1        0.1221
     21 C         138.9672  143.4106  164.8363 C.ar    1  UNL1        0.0230
     22 C         139.8570  144.5650  164.4816 C.ar    1  UNL1        0.0383
     23 C         143.6424  145.2564  163.5411 C.3     1  UNL1        0.2525
     24 O         142.1684  145.4721  163.7170 O.3     1  UNL1       -0.4714
     25 C         141.2597  138.3809  160.5912 C.3     1  UNL1        0.1920
     26 C         141.2708  139.7426  159.9618 C.2     1  UNL1        0.2492
     27 O         142.3769  140.1264  159.0242 O.2     1  UNL1       -0.2727
     28 N         140.1757  140.7202  160.2702 N.am    1  UNL1       -0.2823
     29 H         139.4498  140.4683  160.8856 H       1  UNL1        0.1549
     30 C         140.1869  142.0817  159.6408 C.ar    1  UNL1        0.0504
     31 C         140.8187  143.2358  160.3611 C.ar    1  UNL1        0.0155
     32 C         140.8298  144.5973  159.7317 C.ar    1  UNL1        0.0127
     33 C         140.2091  144.8048  158.3820 C.ar    1  UNL1        0.0578
     34 CL        140.2202  146.1663  157.7527 Cl      1  UNL1       -0.0822
     35 C         139.5773  143.6507  157.6617 C.ar    1  UNL1        0.0127
     36 C         139.5662  142.2891  158.2911 C.ar    1  UNL1        0.0155
@<TRIPOS>BOND
     1    23    24    1
     2    24    17    1
     3    17    18   ar
     4    18    19   ar
     5    19    20   ar
     6    20    14    1
     7    14    15    2
     8    14    16    2
     9    14    12    1
    10    12    11    1
    11    11    10    1
    12    10     1    1
    13     1     2   ar
    14     2     3   ar
    15     3    25    1
    16    25    26    1
    17    26    27    2
    18    26    28   am
    19    28    30    1
    20    30    31   ar
    21    31    32   ar
    22    32    33   ar
    23    33    34    1
    24    33    35   ar
    25    35    36   ar
    26     3     4   ar
    27     4     5   ar
    28     5     6   ar
    29     6     7   ar
    30     7     8   ar
    31     8     9   ar
    32    20    21   ar
    33    21    22   ar
    34    22    17   ar
    35     9     1   ar
    36    36    30   ar
    37     9     4   ar
    38    12    13    1
    39    28    29    1
@<TRIPOS>MOLECULE
*****
 36 39 0 0 0
SMALL
GASTEIGER

@<TRIPOS>ATOM
      1 C         140.9550  141.4743  160.3603 C.ar    1  UNL1       -0.0021
      2 C         142.3661  141.5236  160.8666 C.ar    1  UNL1        0.0720
      3 N         142.3997  142.4353  162.0573 N.ar    1  UNL1       -0.3180
      4 C         141.0094  142.9494  162.2869 C.ar    1  UNL1        0.0600
      5 C         140.4411  143.8816  163.3155 C.ar    1  UNL1        0.0172
      6 C         138.9799  144.2199  163.2953 C.ar    1  UNL1        0.0015
      7 C         138.0870  143.6260  162.2465 C.ar    1  UNL1        0.0001
      8 C         138.6553  142.6938  161.2179 C.ar    1  UNL1        0.0012
      9 C         140.1165  142.3555  161.2381 C.ar    1  UNL1        0.0133
     10 C         140.4678  140.6828  159.1830 C.3     1  UNL1        0.0467
     11 C         140.2169  139.2103  159.3211 C.3     1  UNL1        0.0962
     12 N         138.9648  138.7222  159.9874 N.3     1  UNL1       -0.1790
     13 H         138.1959  139.2779  159.6126 H       1  UNL1        0.1488
     14 S         138.8437  138.7679  161.4818 S.O2    1  UNL1        0.0602
     15 O         140.1880  138.1149  161.6107 O.2     1  UNL1       -0.1530
     16 O         137.4994  139.4209  161.3529 O.2     1  UNL1       -0.1530
     17 C         138.4804  138.9051  165.9650 C.ar    1  UNL1        0.1388
     18 C         138.1746  140.1266  165.1500 C.ar    1  UNL1        0.0383
     19 C         138.2957  140.0810  163.6557 C.ar    1  UNL1        0.0230
     20 C         138.7226  138.8137  162.9762 C.ar    1  UNL1        0.1221
     21 C         139.0284  137.5921  163.7911 C.ar    1  UNL1        0.0230
     22 C         138.9074  137.6377  165.2856 C.ar    1  UNL1        0.0383
     23 C         139.1945  139.9135  168.2504 C.3     1  UNL1        0.2525
     24 O         138.3593  138.9508  167.4594 O.3     1  UNL1       -0.4714
     25 C         143.6110  142.7734  162.8749 C.3     1  UNL1        0.1920
     26 C         143.6605  142.4077  164.3289 C.2     1  UNL1        0.2492
     27 O         144.7228  142.9906  165.2131 O.2     1  UNL1       -0.2727
     28 N         142.6477  141.4592  164.8986 N.am    1  UNL1       -0.2823
     29 H         141.9505  141.0766  164.3182 H       1  UNL1        0.1549
     30 C         142.6973  141.0936  166.3524 C.ar    1  UNL1        0.0504
     31 C         142.7199  142.1705  167.3963 C.ar    1  UNL1        0.0155
     32 C         142.7694  141.8047  168.8502 C.ar    1  UNL1        0.0127
     33 C         142.7964  140.3621  169.2603 C.ar    1  UNL1        0.0578
     34 CL        142.8460  139.9965  170.7142 Cl      1  UNL1       -0.0822
     35 C         142.7738  139.2852  168.2164 C.ar    1  UNL1        0.0127
     36 C         142.7242  139.6509  166.7624 C.ar    1  UNL1        0.0155
@<TRIPOS>BOND
     1    23    24    1
     2    24    17    1
     3    17    18   ar
     4    18    19   ar
     5    19    20   ar
     6    20    14    1
     7    14    15    2
     8    14    16    2
     9    14    12    1
    10    12    11    1
    11    11    10    1
    12    10     1    1
    13     1     2   ar
    14     2     3   ar
    15     3    25    1
    16    25    26    1
    17    26    27    2
    18    26    28   am
    19    28    30    1
    20    30    31   ar
    21    31    32   ar
    22    32    33   ar
    23    33    34    1
    24    33    35   ar
    25    35    36   ar
    26     3     4   ar
    27     4     5   ar
    28     5     6   ar
    29     6     7   ar
    30     7     8   ar
    31     8     9   ar
    32    20    21   ar
    33    21    22   ar
    34    22    17   ar
    35     9     1   ar
    36    36    30   ar
    37     9     4   ar
    38    12    13    1
    39    28    29    1
@<TRIPOS>MOLECULE
*****
 36 39 0 0 0
SMALL
GASTEIGER

@<TRIPOS>ATOM
      1 C         138.7998  139.5752  165.8277 C.ar    1  UNL1       -0.0021
      2 C         137.8978  140.5540  165.1361 C.ar    1  UNL1        0.0720
      3 N         138.0798  140.3866  163.6566 N.ar    1  UNL1       -0.3180
      4 C         139.0942  139.3043  163.4338 C.ar    1  UNL1        0.0600
      5 C         139.6702  138.7107  162.1825 C.ar    1  UNL1        0.0172
      6 C         140.6912  137.6156  162.2731 C.ar    1  UNL1        0.0015
      7 C         141.1362  137.1142  163.6149 C.ar    1  UNL1        0.0001
      8 C         140.5603  137.7078  164.8662 C.ar    1  UNL1        0.0012
      9 C         139.5392  138.8029  164.7756 C.ar    1  UNL1        0.0133
     10 C         138.9382  139.3996  167.3109 C.3     1  UNL1        0.0467
     11 C         139.8116  140.3310  168.0982 C.3     1  UNL1        0.0962
     12 N         141.3044  140.2247  167.9969 N.3     1  UNL1       -0.1790
     13 H         141.6885  140.6665  168.8321 H       1  UNL1        0.1488
     14 S         142.0208  140.8226  166.8224 S.O2    1  UNL1        0.0602
     15 O         142.8374  139.5721  166.6838 O.2     1  UNL1       -0.1530
     16 O         141.2040  142.0732  166.9611 O.2     1  UNL1       -0.1530
     17 C         144.1697  142.6165  163.2990 C.ar    1  UNL1        0.1388
     18 C         144.2958  143.2463  164.6545 C.ar    1  UNL1        0.0383
     19 C         143.5795  142.6484  165.8290 C.ar    1  UNL1        0.0230
     20 C         142.7371  141.4206  165.6480 C.ar    1  UNL1        0.1221
     21 C         142.6109  140.7908  164.2925 C.ar    1  UNL1        0.0230
     22 C         143.3272  141.3887  163.1180 C.ar    1  UNL1        0.0383
     23 C         144.7437  142.5965  160.7652 C.3     1  UNL1        0.2525
     24 O         144.8860  143.2145  162.1246 O.3     1  UNL1       -0.4714
     25 C         137.3716  141.1648  162.5875 C.3     1  UNL1        0.1920
     26 C         138.1073  142.2202  161.8160 C.2     1  UNL1        0.2492
     27 O         137.8660  143.6707  162.1120 O.2     1  UNL1       -0.2727
     28 N         139.0843  141.8249  160.7487 N.am    1  UNL1       -0.2823
     29 H         139.2427  140.8728  160.5544 H       1  UNL1        0.1549
     30 C         139.8199  142.8802  159.9773 C.ar    1  UNL1        0.0504
     31 C         139.3353  143.2908  158.6184 C.ar    1  UNL1        0.0155
     32 C         140.0710  144.3462  157.8471 C.ar    1  UNL1        0.0127
     33 C         141.2913  144.9911  158.4346 C.ar    1  UNL1        0.0578
     34 CL        142.0269  146.0464  157.6632 Cl      1  UNL1       -0.0822
     35 C         141.7758  144.5805  159.7935 C.ar    1  UNL1        0.0127
     36 C         141.0401  143.5251  160.5649 C.ar    1  UNL1        0.0155
@<TRIPOS>BOND
     1    23    24    1
     2    24    17    1
     3    17    18   ar
     4    18    19   ar
     5    19    20   ar
     6    20    14    1
     7    14    15    2
     8    14    16    2
     9    14    12    1
    10    12    11    1
    11    11    10    1
    12    10     1    1
    13     1     2   ar
    14     2     3   ar
    15     3    25    1
    16    25    26    1
    17    26    27    2
    18    26    28   am
    19    28    30    1
    20    30    31   ar
    21    31    32   ar
    22    32    33   ar
    23    33    34    1
    24    33    35   ar
    25    35    36   ar
    26     3     4   ar
    27     4     5   ar
    28     5     6   ar
    29     6     7   ar
    30     7     8   ar
    31     8     9   ar
    32    20    21   ar
    33    21    22   ar
    34    22    17   ar
    35     9     1   ar
    36    36    30   ar
    37     9     4   ar
    38    12    13    1
    39    28    29    1
@<TRIPOS>MOLECULE
*****
 36 39 0 0 0
SMALL
GASTEIGER

@<TRIPOS>ATOM
      1 C         144.1517  142.2012  160.0962 C.ar    1  UNL1       -0.0021
      2 C         144.7886  142.8210  161.3045 C.ar    1  UNL1        0.0720
      3 N         144.8606  141.7758  162.3780 N.ar    1  UNL1       -0.3180
      4 C         144.2683  140.5100  161.8330 C.ar    1  UNL1        0.0600
      5 C         144.0713  139.1520  162.4388 C.ar    1  UNL1        0.0172
      6 C         143.4361  138.0569  161.6342 C.ar    1  UNL1        0.0015
      7 C         142.9979  138.3199  160.2240 C.ar    1  UNL1        0.0001
      8 C         143.1949  139.6779  159.6182 C.ar    1  UNL1        0.0012
      9 C         143.8301  140.7729  160.4228 C.ar    1  UNL1        0.0133
     10 C         143.8834  142.8889  158.7904 C.3     1  UNL1        0.0467
     11 C         142.5968  143.6323  158.5846 C.3     1  UNL1        0.0962
     12 N         141.9872  144.4042  159.7171 N.3     1  UNL1       -0.1790
     13 H         142.7557  144.8563  160.2126 H       1  UNL1        0.1488
     14 S         141.1636  143.6947  160.7507 S.O2    1  UNL1        0.0602
     15 O         140.4811  142.9110  159.6689 O.2     1  UNL1       -0.1530
     16 O         141.8461  144.4783  161.8325 O.2     1  UNL1       -0.1530
     17 C         138.6929  141.5661  163.8515 C.ar    1  UNL1        0.1388
     18 C         138.2546  142.9031  163.3316 C.ar    1  UNL1        0.0383
     19 C         139.0781  143.6126  162.2980 C.ar    1  UNL1        0.0230
     20 C         140.3400  142.9852  161.7842 C.ar    1  UNL1        0.1221
     21 C         140.7783  141.6482  162.3041 C.ar    1  UNL1        0.0230
     22 C         139.9548  140.9386  163.3378 C.ar    1  UNL1        0.0383
     23 C         138.3942  139.6120  165.5374 C.3     1  UNL1        0.2525
     24 O         137.8693  140.8566  164.8851 O.3     1  UNL1       -0.4714
     25 C         145.4258  141.9634  163.7547 C.3     1  UNL1        0.1920
     26 C         144.5443  142.4471  164.8679 C.2     1  UNL1        0.2492
     27 O         144.6058  143.8810  165.3040 O.2     1  UNL1       -0.2727
     28 N         143.6014  141.4970  165.5448 N.am    1  UNL1       -0.2823
     29 H         143.5611  140.5559  165.2585 H       1  UNL1        0.1549
     30 C         142.7200  141.9808  166.6579 C.ar    1  UNL1        0.0504
     31 C         141.2968  142.3615  166.3762 C.ar    1  UNL1        0.0155
     32 C         140.4154  142.8453  167.4893 C.ar    1  UNL1        0.0127
     33 C         140.9573  142.9485  168.8842 C.ar    1  UNL1        0.0578
     34 CL        140.0759  143.4323  169.9973 Cl      1  UNL1       -0.0822
     35 C         142.3805  142.5678  169.1660 C.ar    1  UNL1        0.0127
     36 C         143.2620  142.0840  168.0528 C.ar    1  UNL1        0.0155
@<TRIPOS>BOND
     1    23    24    1
     2    24    17    1
     3    17    18   ar
     4    18    19   ar
     5    19    20   ar
     6    20    14    1
     7    14    15    2
     8    14    16    2
     9    14    12    1
    10    12    11    1
    11    11    10    1
    12    10     1    1
    13     1     2   ar
    14     2     3   ar
    15     3    25    1
    16    25    26    1
    17    26    27    2
    18    26    28   am
    19    28    30    1
    20    30    31   ar
    21    31    32   ar
    22    32    33   ar
    23    33    34    1
    24    33    35   ar
    25    35    36   ar
    26     3     4   ar
    27     4     5   ar
    28     5     6   ar
    29     6     7   ar
    30     7     8   ar
    31     8     9   ar
    32    20    21   ar
    33    21    22   ar
    34    22    17   ar
    35     9     1   ar
    36    36    30   ar
    37     9     4   ar
    38    12    13    1
    39    28    29    1
@<TRIPOS>MOLECULE
*****
 36 39 0 0 0
SMALL
GASTEIGER

@<TRIPOS>ATOM
      1 C         142.7668  138.7649  162.0206 C.ar    1  UNL1       -0.0021
      2 C         143.7272  138.8185  163.1717 C.ar    1  UNL1        0.0720
      3 N         142.9775  138.4522  164.4182 N.ar    1  UNL1       -0.3180
      4 C         141.5538  138.1723  164.0376 C.ar    1  UNL1        0.0600
      5 C         140.3592  137.7665  164.8488 C.ar    1  UNL1        0.0172
      6 C         139.0344  137.5539  164.1783 C.ar    1  UNL1        0.0015
      7 C         138.9042  137.7471  162.6965 C.ar    1  UNL1        0.0001
      8 C         140.0988  138.1530  161.8852 C.ar    1  UNL1        0.0012
      9 C         141.4236  138.3656  162.5558 C.ar    1  UNL1        0.0133
     10 C         143.0925  139.0591  160.5863 C.3     1  UNL1        0.0467
     11 C         143.6457  140.3995  160.2024 C.3     1  UNL1        0.0962
     12 N         142.7152  141.5208  159.8459 N.3     1  UNL1       -0.1790
     13 H         143.2981  142.3072  159.5592 H       1  UNL1        0.1488
     14 S         141.7494  142.0468  160.8659 S.O2    1  UNL1        0.0602
     15 O         140.6034  141.6769  159.9716 O.2     1  UNL1       -0.1530
     16 O         142.8955  142.4167  161.7603 O.2     1  UNL1       -0.1530
     17 C         138.8519  143.6250  163.9260 C.ar    1  UNL1        0.1388
     18 C         139.6663  142.4014  164.2253 C.ar    1  UNL1        0.0383
     19 C         140.6321  141.8753  163.2053 C.ar    1  UNL1        0.0230
     20 C         140.7836  142.5728  161.8860 C.ar    1  UNL1        0.1221
     21 C         139.9692  143.7964  161.5867 C.ar    1  UNL1        0.0230
     22 C         139.0033  144.3226  162.6068 C.ar    1  UNL1        0.0383
     23 C         138.3445  145.1482  165.9687 C.3     1  UNL1        0.2525
     24 O         137.8862  144.1510  164.9461 O.3     1  UNL1       -0.4714
     25 C         143.5508  138.3787  165.8023 C.3     1  UNL1        0.1920
     26 C         142.8890  139.1165  166.9284 C.2     1  UNL1        0.2492
     27 O         143.1998  138.7510  168.3496 O.2     1  UNL1       -0.2727
     28 N         141.9163  140.2195  166.6332 N.am    1  UNL1       -0.2823
     29 H         141.7123  140.4594  165.7004 H       1  UNL1        0.1549
     30 C         141.2546  140.9572  167.7592 C.ar    1  UNL1        0.0504
     31 C         141.7219  142.3329  168.1318 C.ar    1  UNL1        0.0155
     32 C         141.0601  143.0705  169.2579 C.ar    1  UNL1        0.0127
     33 C         139.9310  142.4323  170.0114 C.ar    1  UNL1        0.0578
     34 CL        139.2692  143.1699  171.1375 Cl      1  UNL1       -0.0822
     35 C         139.4636  141.0565  169.6388 C.ar    1  UNL1        0.0127
     36 C         140.1254  140.3189  168.5127 C.ar    1  UNL1        0.0155
@<TRIPOS>BOND
     1    23    24    1
     2    24    17    1
     3    17    18   ar
     4    18    19   ar
     5    19    20   ar
     6    20    14    1
     7    14    15    2
     8    14    16    2
     9    14    12    1
    10    12    11    1
    11    11    10    1
    12    10     1    1
    13     1     2   ar
    14     2     3   ar
    15     3    25    1
    16    25    26    1
    17    26    27    2
    18    26    28   am
    19    28    30    1
    20    30    31   ar
    21    31    32   ar
    22    32    33   ar
    23    33    34    1
    24    33    35   ar
    25    35    36   ar
    26     3     4   ar
    27     4     5   ar
    28     5     6   ar
    29     6     7   ar
    30     7     8   ar
    31     8     9   ar
    32    20    21   ar
    33    21    22   ar
    34    22    17   ar
    35     9     1   ar
    36    36    30   ar
    37     9     4   ar
    38    12    13    1
    39    28    29    1
