@<TRIPOS>MOLECULE
*****
 35 38 0 0 0
SMALL
GASTEIGER

@<TRIPOS>ATOM
      1 N         144.4035  141.9198  163.9186 N.3     1  UNL1       -0.2673
      2 C         144.1762  142.9396  164.9948 C.3     1  UNL1        0.1035
      3 C         143.5817  142.5245  166.3079 C.3     1  UNL1        0.1470
      4 C         142.9871  142.1094  167.6210 C.3     1  UNL1        0.1036
      5 N         142.6200  140.6745  167.8579 N.3     1  UNL1       -0.2653
      6 C         142.8473  139.6546  166.7816 C.3     1  UNL1        0.1036
      7 C         143.4418  140.0697  165.4686 C.3     1  UNL1        0.1470
      8 C         144.0363  140.4848  164.1555 C.3     1  UNL1        0.1035
      9 O         143.2145  141.0896  166.5448 O.3     1  UNL1       -0.3530
     10 C         144.9980  142.3349  162.6055 C.3     1  UNL1        0.0913
     11 C         144.2755  142.0330  161.3261 C.3     1  UNL1        0.1087
     12 N         143.4059  143.0775  160.6913 N.3     1  UNL1       -0.1779
     13 H         143.8723  143.9738  160.8315 H       1  UNL1        0.1488
     14 S         141.9877  143.2513  161.1478 S.O2    1  UNL1        0.0637
     15 O         142.0898  144.7277  160.9029 O.2     1  UNL1       -0.1529
     16 O         141.8856  141.7750  161.3927 O.2     1  UNL1       -0.1529
     17 C         139.3200  142.8725  159.3068 C.3     1  UNL1        0.0555
     18 C         139.3432  143.2511  160.7580 C.ar    1  UNL1        0.0998
     19 N         138.1444  143.5219  161.6179 N.ar    1  UNL1       -0.1714
     20 N         138.6297  143.8635  162.9955 N.ar    1  UNL1       -0.2372
     21 C         137.7675  144.2049  164.1746 C.3     1  UNL1        0.1548
     22 C         140.1285  143.8037  162.9871 C.ar    1  UNL1        0.1546
     23 CL        141.0282  144.0748  164.1562 Cl      1  UNL1       -0.0603
     24 C         140.5695  143.4252  161.6043 C.ar    1  UNL1        0.1649
     25 C         142.0255  140.2593  169.1710 C.3     1  UNL1        0.1202
     26 C         140.5433  140.0648  169.2952 C.3     1  UNL1        0.2226
     27 O         139.6101  140.8146  168.3914 O.3     1  UNL1       -0.4740
     28 C         139.3045  140.2839  167.0221 C.ar    1  UNL1        0.1387
     29 C         139.6040  141.1165  165.8109 C.ar    1  UNL1        0.0376
     30 C         139.2984  140.5857  164.4416 C.ar    1  UNL1        0.0134
     31 C         138.6932  139.2224  164.2835 C.ar    1  UNL1        0.0686
     32 C         138.3936  138.3898  165.4947 C.ar    1  UNL1        0.0134
     33 C         138.6992  138.9205  166.8640 C.ar    1  UNL1        0.0376
     34 C         138.3876  138.6917  162.9143 C.1     1  UNL1        0.1004
     35 N         138.0820  138.1609  161.5450 N.1     1  UNL1       -0.1908
@<TRIPOS>BOND
     1    17    18    1
     2    18    19   ar
     3    19    20   ar
     4    20    21    1
     5    20    22   ar
     6    22    23    1
     7    22    24   ar
     8    24    14    1
     9    14    15    2
    10    14    16    2
    11    14    12    1
    12    12    11    1
    13    11    10    1
    14    10     1    1
    15     1     2    1
    16     2     3    1
    17     3     4    1
    18     4     5    1
    19     5    25    1
    20    25    26    1
    21    26    27    1
    22    27    28    1
    23    28    29   ar
    24    29    30   ar
    25    30    31   ar
    26    31    34    1
    27    34    35    3
    28    31    32   ar
    29    32    33   ar
    30     5     6    1
    31     6     7    1
    32     7     8    1
    33     7     9    1
    34    24    18   ar
    35     8     1    1
    36     9     3    1
    37    33    28   ar
    38    12    13    1
@<TRIPOS>MOLECULE
*****
 35 38 0 0 0
SMALL
GASTEIGER

@<TRIPOS>ATOM
      1 N         140.6867  144.3945  163.9491 N.3     1  UNL1       -0.2673
      2 C         142.1251  143.9694  163.9309 C.3     1  UNL1        0.1035
      3 C         142.6663  143.1075  165.0328 C.3     1  UNL1        0.1470
      4 C         143.2076  142.2455  166.1346 C.3     1  UNL1        0.1036
      5 N         142.3105  141.8087  167.2547 N.3     1  UNL1       -0.2653
      6 C         140.8721  142.2339  167.2728 C.3     1  UNL1        0.1036
      7 C         140.3309  143.0958  166.1710 C.3     1  UNL1        0.1470
      8 C         139.7896  143.9578  165.0691 C.3     1  UNL1        0.1035
      9 O         141.7692  142.6707  166.1528 O.3     1  UNL1       -0.3530
     10 C         140.1454  145.2565  162.8472 C.3     1  UNL1        0.0913
     11 C         139.5390  144.6244  161.6296 C.3     1  UNL1        0.1087
     12 N         138.2842  143.8115  161.7526 N.3     1  UNL1       -0.1779
     13 H         137.8251  144.1072  162.6141 H       1  UNL1        0.1488
     14 S         138.3618  142.3142  161.7952 S.O2    1  UNL1        0.0637
     15 O         137.0439  142.2662  162.5098 O.2     1  UNL1       -0.1529
     16 O         139.6797  142.3621  161.0806 O.2     1  UNL1       -0.1529
     17 C         137.8588  140.2951  159.2812 C.3     1  UNL1        0.0555
     18 C         138.2082  139.8887  160.6822 C.ar    1  UNL1        0.0998
     19 N         138.3877  138.4829  161.1736 N.ar    1  UNL1       -0.1714
     20 N         138.7299  138.5422  162.6329 N.ar    1  UNL1       -0.2372
     21 C         138.9937  137.3656  163.5251 C.3     1  UNL1        0.1548
     22 C         138.7618  139.9846  163.0434 C.ar    1  UNL1        0.1546
     23 CL        139.0632  140.5036  164.4180 Cl      1  UNL1       -0.0603
     24 C         138.4394  140.8168  161.8378 C.ar    1  UNL1        0.1649
     25 C         142.8517  140.9468  168.3565 C.3     1  UNL1        0.1202
     26 C         142.4903  139.4922  168.4172 C.3     1  UNL1        0.2226
     27 O         143.3029  138.4852  167.6584 O.3     1  UNL1       -0.4740
     28 C         143.4479  138.6064  166.1704 C.ar    1  UNL1        0.1387
     29 C         142.2881  138.2846  165.2751 C.ar    1  UNL1        0.0376
     30 C         142.4332  138.4057  163.7870 C.ar    1  UNL1        0.0134
     31 C         143.7379  138.8487  163.1943 C.ar    1  UNL1        0.0686
     32 C         144.8976  139.1705  164.0895 C.ar    1  UNL1        0.0134
     33 C         144.7526  139.0493  165.5775 C.ar    1  UNL1        0.0376
     34 C         143.8829  138.9698  161.7063 C.1     1  UNL1        0.1004
     35 N         144.0279  139.0909  160.2181 N.1     1  UNL1       -0.1908
@<TRIPOS>BOND
     1    17    18    1
     2    18    19   ar
     3    19    20   ar
     4    20    21    1
     5    20    22   ar
     6    22    23    1
     7    22    24   ar
     8    24    14    1
     9    14    15    2
    10    14    16    2
    11    14    12    1
    12    12    11    1
    13    11    10    1
    14    10     1    1
    15     1     2    1
    16     2     3    1
    17     3     4    1
    18     4     5    1
    19     5    25    1
    20    25    26    1
    21    26    27    1
    22    27    28    1
    23    28    29   ar
    24    29    30   ar
    25    30    31   ar
    26    31    34    1
    27    34    35    3
    28    31    32   ar
    29    32    33   ar
    30     5     6    1
    31     6     7    1
    32     7     8    1
    33     7     9    1
    34    24    18   ar
    35     8     1    1
    36     9     3    1
    37    33    28   ar
    38    12    13    1
@<TRIPOS>MOLECULE
*****
 35 38 0 0 0
SMALL
GASTEIGER

@<TRIPOS>ATOM
      1 N         141.8760  138.0284  160.5972 N.3     1  UNL1       -0.2673
      2 C         142.5363  137.7857  161.9220 C.3     1  UNL1        0.1035
      3 C         141.7041  137.6681  163.1644 C.3     1  UNL1        0.1470
      4 C         140.8719  137.5503  164.4068 C.3     1  UNL1        0.1036
      5 N         139.3794  137.6753  164.3245 N.3     1  UNL1       -0.2653
      6 C         138.7191  137.9180  162.9996 C.3     1  UNL1        0.1036
      7 C         139.5513  138.0357  161.7572 C.3     1  UNL1        0.1470
      8 C         140.3835  138.1534  160.5148 C.3     1  UNL1        0.1035
      9 O         140.2116  137.7930  163.0820 O.3     1  UNL1       -0.3530
     10 C         142.7082  138.1461  159.3548 C.3     1  UNL1        0.0913
     11 C         143.2635  139.4787  158.9474 C.3     1  UNL1        0.1087
     12 N         142.5330  140.7379  159.3092 N.3     1  UNL1       -0.1779
     13 H         142.6089  141.3632  158.5069 H       1  UNL1        0.1488
     14 S         142.9505  141.5272  160.5144 S.O2    1  UNL1        0.0637
     15 O         141.6319  141.2309  161.1652 O.2     1  UNL1       -0.1529
     16 O         144.2690  141.8236  159.8636 O.2     1  UNL1       -0.1529
     17 C         144.8621  140.4638  162.9361 C.3     1  UNL1        0.0555
     18 C         144.2466  141.8278  162.8328 C.ar    1  UNL1        0.0998
     19 N         144.4018  142.9424  163.8245 N.ar    1  UNL1       -0.1714
     20 N         143.6189  144.1201  163.3242 N.ar    1  UNL1       -0.2372
     21 C         143.4966  145.4510  164.0053 C.3     1  UNL1        0.1548
     22 C         142.9800  143.7333  162.0234 C.ar    1  UNL1        0.1546
     23 CL        142.1065  144.6095  161.1753 Cl      1  UNL1       -0.0603
     24 C         143.3679  142.3166  161.7197 C.ar    1  UNL1        0.1649
     25 C         138.5472  137.5576  165.5668 C.3     1  UNL1        0.1202
     26 C         138.1326  138.7920  166.3116 C.3     1  UNL1        0.2226
     27 O         139.1070  139.9165  166.5010 O.3     1  UNL1       -0.4740
     28 C         139.0664  141.1059  165.5880 C.ar    1  UNL1        0.1387
     29 C         138.0252  141.1898  164.5115 C.ar    1  UNL1        0.0376
     30 C         137.9846  142.3793  163.5984 C.ar    1  UNL1        0.0134
     31 C         138.9851  143.4847  163.7620 C.ar    1  UNL1        0.0686
     32 C         140.0263  143.4008  164.8385 C.ar    1  UNL1        0.0134
     33 C         140.0670  142.2114  165.7515 C.ar    1  UNL1        0.0376
     34 C         138.9445  144.6741  162.8489 C.1     1  UNL1        0.1004
     35 N         138.9038  145.8636  161.9359 N.1     1  UNL1       -0.1908
@<TRIPOS>BOND
     1    17    18    1
     2    18    19   ar
     3    19    20   ar
     4    20    21    1
     5    20    22   ar
     6    22    23    1
     7    22    24   ar
     8    24    14    1
     9    14    15    2
    10    14    16    2
    11    14    12    1
    12    12    11    1
    13    11    10    1
    14    10     1    1
    15     1     2    1
    16     2     3    1
    17     3     4    1
    18     4     5    1
    19     5    25    1
    20    25    26    1
    21    26    27    1
    22    27    28    1
    23    28    29   ar
    24    29    30   ar
    25    30    31   ar
    26    31    34    1
    27    34    35    3
    28    31    32   ar
    29    32    33   ar
    30     5     6    1
    31     6     7    1
    32     7     8    1
    33     7     9    1
    34    24    18   ar
    35     8     1    1
    36     9     3    1
    37    33    28   ar
    38    12    13    1
@<TRIPOS>MOLECULE
*****
 35 38 0 0 0
SMALL
GASTEIGER

@<TRIPOS>ATOM
      1 N         142.1604  138.2113  160.7487 N.3     1  UNL1       -0.2673
      2 C         140.6702  138.2444  160.5814 C.3     1  UNL1        0.1035
      3 C         139.7775  138.0729  161.7745 C.3     1  UNL1        0.1470
      4 C         138.8848  137.9013  162.9677 C.3     1  UNL1        0.1036
      5 N         139.4823  137.6965  164.3282 N.3     1  UNL1       -0.2653
      6 C         140.9727  137.6634  164.4955 C.3     1  UNL1        0.1036
      7 C         141.8653  137.8349  163.3024 C.3     1  UNL1        0.1470
      8 C         142.7580  138.0065  162.1092 C.3     1  UNL1        0.1035
      9 O         140.3751  137.8681  163.1350 O.3     1  UNL1       -0.3530
     10 C         143.0531  138.3829  159.5555 C.3     1  UNL1        0.0913
     11 C         142.4573  138.5039  158.1843 C.3     1  UNL1        0.1087
     12 N         143.2592  138.1066  156.9804 N.3     1  UNL1       -0.1779
     13 H         143.0514  138.7879  156.2503 H       1  UNL1        0.1488
     14 S         143.0741  136.7486  156.3708 S.O2    1  UNL1        0.0637
     15 O         141.6680  136.7066  156.8913 O.2     1  UNL1       -0.1529
     16 O         144.4802  136.7906  155.8503 O.2     1  UNL1       -0.1529
     17 C         142.0481  136.1325  153.3348 C.3     1  UNL1        0.0555
     18 C         142.4174  135.1075  154.3657 C.ar    1  UNL1        0.0998
     19 N         142.3800  133.6192  154.1821 N.ar    1  UNL1       -0.1714
     20 N         142.8285  132.9826  155.4641 N.ar    1  UNL1       -0.2372
     21 C         142.9423  131.5098  155.7245 C.3     1  UNL1        0.1548
     22 C         143.1431  134.0774  156.4401 C.ar    1  UNL1        0.1546
     23 CL        143.6268  133.8916  157.8477 Cl      1  UNL1       -0.0603
     24 C         142.8890  135.3907  155.7612 C.ar    1  UNL1        0.1649
     25 C         138.5897  137.5249  165.5214 C.3     1  UNL1        0.1202
     26 C         138.1276  138.7265  166.2914 C.3     1  UNL1        0.2226
     27 O         139.0678  139.8703  166.5317 O.3     1  UNL1       -0.4740
     28 C         139.0537  141.0579  165.6156 C.ar    1  UNL1        0.1387
     29 C         140.0359  142.1733  165.8184 C.ar    1  UNL1        0.0376
     30 C         140.0218  143.3609  164.9021 C.ar    1  UNL1        0.0134
     31 C         139.0256  143.4330  163.7831 C.ar    1  UNL1        0.0686
     32 C         138.0434  142.3176  163.5802 C.ar    1  UNL1        0.0134
     33 C         138.0575  141.1300  164.4964 C.ar    1  UNL1        0.0376
     34 C         139.0115  144.6206  162.8669 C.1     1  UNL1        0.1004
     35 N         138.9974  145.8082  161.9507 N.1     1  UNL1       -0.1908
@<TRIPOS>BOND
     1    17    18    1
     2    18    19   ar
     3    19    20   ar
     4    20    21    1
     5    20    22   ar
     6    22    23    1
     7    22    24   ar
     8    24    14    1
     9    14    15    2
    10    14    16    2
    11    14    12    1
    12    12    11    1
    13    11    10    1
    14    10     1    1
    15     1     2    1
    16     2     3    1
    17     3     4    1
    18     4     5    1
    19     5    25    1
    20    25    26    1
    21    26    27    1
    22    27    28    1
    23    28    29   ar
    24    29    30   ar
    25    30    31   ar
    26    31    34    1
    27    34    35    3
    28    31    32   ar
    29    32    33   ar
    30     5     6    1
    31     6     7    1
    32     7     8    1
    33     7     9    1
    34    24    18   ar
    35     8     1    1
    36     9     3    1
    37    33    28   ar
    38    12    13    1
@<TRIPOS>MOLECULE
*****
 35 38 0 0 0
SMALL
GASTEIGER

@<TRIPOS>ATOM
      1 N         141.8850  138.0274  160.5842 N.3     1  UNL1       -0.2673
      2 C         142.5586  137.8876  161.9171 C.3     1  UNL1        0.1035
      3 C         141.7369  137.8377  163.1710 C.3     1  UNL1        0.1470
      4 C         140.9152  137.7879  164.4250 C.3     1  UNL1        0.1036
      5 N         139.4199  137.8778  164.3459 N.3     1  UNL1       -0.2653
      6 C         138.7464  138.0176  163.0129 C.3     1  UNL1        0.1036
      7 C         139.5681  138.0674  161.7590 C.3     1  UNL1        0.1470
      8 C         140.3898  138.1173  160.5051 C.3     1  UNL1        0.1035
      9 O         140.2416  137.9276  163.0920 O.3     1  UNL1       -0.3530
     10 C         142.7067  138.0773  159.3302 C.3     1  UNL1        0.0913
     11 C         143.1453  139.3991  158.7730 C.3     1  UNL1        0.1087
     12 N         142.2351  140.5883  158.8585 N.3     1  UNL1       -0.1779
     13 H         142.2913  141.0673  157.9597 H       1  UNL1        0.1488
     14 S         142.4560  141.6273  159.9175 S.O2    1  UNL1        0.0637
     15 O         143.8494  141.8496  159.4087 O.2     1  UNL1       -0.1529
     16 O         141.0626  141.4050  160.4263 O.2     1  UNL1       -0.1529
     17 C         141.5621  144.7612  159.7461 C.3     1  UNL1        0.0555
     18 C         142.2661  144.1069  160.8977 C.ar    1  UNL1        0.0998
     19 N         142.6827  144.7781  162.1728 N.ar    1  UNL1       -0.1714
     20 N         143.3512  143.7525  163.0396 N.ar    1  UNL1       -0.2372
     21 C         143.9228  143.9902  164.4059 C.3     1  UNL1        0.1548
     22 C         143.3476  142.4474  162.3002 C.ar    1  UNL1        0.1546
     23 CL        143.9150  141.1509  162.7974 Cl      1  UNL1       -0.0603
     24 C         142.6769  142.6664  160.9765 C.ar    1  UNL1        0.1649
     25 C         138.5982  137.8279  165.5998 C.3     1  UNL1        0.1202
     26 C         138.1391  139.1010  166.2468 C.3     1  UNL1        0.2226
     27 O         139.1057  140.2296  166.4510 O.3     1  UNL1       -0.4740
     28 C         139.0967  141.4031  165.5167 C.ar    1  UNL1        0.1387
     29 C         138.0298  141.5192  164.4687 C.ar    1  UNL1        0.0376
     30 C         138.0208  142.6927  163.5345 C.ar    1  UNL1        0.0134
     31 C         139.0786  143.7501  163.6483 C.ar    1  UNL1        0.0686
     32 C         140.1455  143.6340  164.6962 C.ar    1  UNL1        0.0134
     33 C         140.1545  142.4605  165.6305 C.ar    1  UNL1        0.0376
     34 C         139.0695  144.9236  162.7140 C.1     1  UNL1        0.1004
     35 N         139.0604  146.0971  161.7798 N.1     1  UNL1       -0.1908
@<TRIPOS>BOND
     1    17    18    1
     2    18    19   ar
     3    19    20   ar
     4    20    21    1
     5    20    22   ar
     6    22    23    1
     7    22    24   ar
     8    24    14    1
     9    14    15    2
    10    14    16    2
    11    14    12    1
    12    12    11    1
    13    11    10    1
    14    10     1    1
    15     1     2    1
    16     2     3    1
    17     3     4    1
    18     4     5    1
    19     5    25    1
    20    25    26    1
    21    26    27    1
    22    27    28    1
    23    28    29   ar
    24    29    30   ar
    25    30    31   ar
    26    31    34    1
    27    34    35    3
    28    31    32   ar
    29    32    33   ar
    30     5     6    1
    31     6     7    1
    32     7     8    1
    33     7     9    1
    34    24    18   ar
    35     8     1    1
    36     9     3    1
    37    33    28   ar
    38    12    13    1
@<TRIPOS>MOLECULE
*****
 35 38 0 0 0
SMALL
GASTEIGER

@<TRIPOS>ATOM
      1 N         139.5102  138.0146  163.5761 N.3     1  UNL1       -0.2673
      2 C         140.9747  137.6909  163.5969 C.3     1  UNL1        0.1035
      3 C         141.7768  137.7637  162.3315 C.3     1  UNL1        0.1470
      4 C         142.5791  137.8365  161.0661 C.3     1  UNL1        0.1036
      5 N         141.9167  138.2330  159.7800 N.3     1  UNL1       -0.2653
      6 C         140.4522  138.5566  159.7592 C.3     1  UNL1        0.1036
      7 C         139.6500  138.4838  161.0246 C.3     1  UNL1        0.1470
      8 C         138.8478  138.4110  162.2899 C.3     1  UNL1        0.1035
      9 O         141.1145  138.1602  161.0454 O.3     1  UNL1       -0.3530
     10 C         138.7079  137.9418  164.8415 C.3     1  UNL1        0.0913
     11 C         138.5518  139.1607  165.7017 C.3     1  UNL1        0.1087
     12 N         137.9037  140.3936  165.1448 N.3     1  UNL1       -0.1779
     13 H         137.3283  140.0940  164.3577 H       1  UNL1        0.1488
     14 S         138.7511  141.5298  164.6539 S.O2    1  UNL1        0.0637
     15 O         139.6188  141.4087  165.8714 O.2     1  UNL1       -0.1529
     16 O         137.8834  141.6509  163.4364 O.2     1  UNL1       -0.1529
     17 C         138.3546  144.6813  165.4023 C.3     1  UNL1        0.0555
     18 C         139.4163  144.1146  164.5070 C.ar    1  UNL1        0.0998
     19 N         140.4821  144.8969  163.7985 N.ar    1  UNL1       -0.1714
     20 N         141.3230  143.9318  163.0166 N.ar    1  UNL1       -0.2372
     21 C         142.5030  144.2837  162.1599 C.3     1  UNL1        0.1548
     22 C         140.7770  142.5530  163.2419 C.ar    1  UNL1        0.1546
     23 CL        141.3149  141.2841  162.6500 Cl      1  UNL1       -0.0603
     24 C         139.5985  142.6659  164.1630 C.ar    1  UNL1        0.1649
     25 C         142.7189  138.3058  158.5146 C.3     1  UNL1        0.1202
     26 C         142.4583  137.3314  157.4042 C.3     1  UNL1        0.2226
     27 O         143.4940  136.3071  157.0467 O.3     1  UNL1       -0.4740
     28 C         143.0748  134.9190  156.6627 C.ar    1  UNL1        0.1387
     29 C         141.9749  134.7173  155.6629 C.ar    1  UNL1        0.0376
     30 C         141.5557  133.3292  155.2790 C.ar    1  UNL1        0.0134
     31 C         142.2363  132.1428  155.8948 C.ar    1  UNL1        0.0686
     32 C         143.3362  132.3445  156.8946 C.ar    1  UNL1        0.0134
     33 C         143.7554  133.7326  157.2786 C.ar    1  UNL1        0.0376
     34 C         141.8171  130.7548  155.5108 C.1     1  UNL1        0.1004
     35 N         141.3979  129.3666  155.1269 N.1     1  UNL1       -0.1908
@<TRIPOS>BOND
     1    17    18    1
     2    18    19   ar
     3    19    20   ar
     4    20    21    1
     5    20    22   ar
     6    22    23    1
     7    22    24   ar
     8    24    14    1
     9    14    15    2
    10    14    16    2
    11    14    12    1
    12    12    11    1
    13    11    10    1
    14    10     1    1
    15     1     2    1
    16     2     3    1
    17     3     4    1
    18     4     5    1
    19     5    25    1
    20    25    26    1
    21    26    27    1
    22    27    28    1
    23    28    29   ar
    24    29    30   ar
    25    30    31   ar
    26    31    34    1
    27    34    35    3
    28    31    32   ar
    29    32    33   ar
    30     5     6    1
    31     6     7    1
    32     7     8    1
    33     7     9    1
    34    24    18   ar
    35     8     1    1
    36     9     3    1
    37    33    28   ar
    38    12    13    1
@<TRIPOS>MOLECULE
*****
 35 38 0 0 0
SMALL
GASTEIGER

@<TRIPOS>ATOM
      1 N         142.1288  138.1705  160.8319 N.3     1  UNL1       -0.2673
      2 C         140.6409  138.1739  160.6415 C.3     1  UNL1        0.1035
      3 C         139.7330  138.0177  161.8253 C.3     1  UNL1        0.1470
      4 C         138.8250  137.8615  163.0091 C.3     1  UNL1        0.1036
      5 N         139.4050  137.7019  164.3832 N.3     1  UNL1       -0.2653
      6 C         140.8929  137.6985  164.5735 C.3     1  UNL1        0.1036
      7 C         141.8008  137.8547  163.3898 C.3     1  UNL1        0.1470
      8 C         142.7087  138.0109  162.2060 C.3     1  UNL1        0.1035
      9 O         140.3130  137.8581  163.1994 O.3     1  UNL1       -0.3530
     10 C         143.0367  138.3267  159.6481 C.3     1  UNL1        0.0913
     11 C         142.4609  138.3912  158.2646 C.3     1  UNL1        0.1087
     12 N         143.3230  138.0767  157.0780 N.3     1  UNL1       -0.1779
     13 H         143.1782  138.8266  156.4018 H       1  UNL1        0.1488
     14 S         143.1385  136.7850  156.3382 S.O2    1  UNL1        0.0637
     15 O         144.5262  136.9055  155.7817 O.2     1  UNL1       -0.1529
     16 O         141.7508  136.6645  156.8947 O.2     1  UNL1       -0.1529
     17 C         143.7746  133.8020  157.4988 C.3     1  UNL1        0.0555
     18 C         143.2464  134.1221  156.1319 C.ar    1  UNL1        0.0998
     19 N         142.9179  133.1273  155.0584 N.ar    1  UNL1       -0.1714
     20 N         142.4224  133.8836  153.8615 N.ar    1  UNL1       -0.2372
     21 C         141.9819  133.2831  152.5594 C.3     1  UNL1        0.1548
     22 C         142.4448  135.3458  154.1953 C.ar    1  UNL1        0.1546
     23 CL        142.0306  136.4642  153.2855 Cl      1  UNL1       -0.0603
     24 C         142.9540  135.4933  155.5984 C.ar    1  UNL1        0.1649
     25 C         138.4971  137.5457  165.5669 C.3     1  UNL1        0.1202
     26 C         138.1725  138.7325  166.4250 C.3     1  UNL1        0.2226
     27 O         139.1691  139.8432  166.5768 O.3     1  UNL1       -0.4740
     28 C         139.1183  141.0273  165.6574 C.ar    1  UNL1        0.1387
     29 C         138.0820  141.0925  164.5750 C.ar    1  UNL1        0.0376
     30 C         138.0312  142.2766  163.6555 C.ar    1  UNL1        0.0134
     31 C         139.0169  143.3955  163.8185 C.ar    1  UNL1        0.0686
     32 C         140.0533  143.3303  164.9010 C.ar    1  UNL1        0.0134
     33 C         140.1040  142.1462  165.8204 C.ar    1  UNL1        0.0376
     34 C         138.9662  144.5795  162.8991 C.1     1  UNL1        0.1004
     35 N         138.9155  145.7637  161.9796 N.1     1  UNL1       -0.1908
@<TRIPOS>BOND
     1    17    18    1
     2    18    19   ar
     3    19    20   ar
     4    20    21    1
     5    20    22   ar
     6    22    23    1
     7    22    24   ar
     8    24    14    1
     9    14    15    2
    10    14    16    2
    11    14    12    1
    12    12    11    1
    13    11    10    1
    14    10     1    1
    15     1     2    1
    16     2     3    1
    17     3     4    1
    18     4     5    1
    19     5    25    1
    20    25    26    1
    21    26    27    1
    22    27    28    1
    23    28    29   ar
    24    29    30   ar
    25    30    31   ar
    26    31    34    1
    27    34    35    3
    28    31    32   ar
    29    32    33   ar
    30     5     6    1
    31     6     7    1
    32     7     8    1
    33     7     9    1
    34    24    18   ar
    35     8     1    1
    36     9     3    1
    37    33    28   ar
    38    12    13    1
@<TRIPOS>MOLECULE
*****
 35 38 0 0 0
SMALL
GASTEIGER

@<TRIPOS>ATOM
      1 N         139.4991  138.4629  161.9244 N.3     1  UNL1       -0.2673
      2 C         138.4136  139.3591  162.4425 C.3     1  UNL1        0.1035
      3 C         138.4181  139.7891  163.8795 C.3     1  UNL1        0.1470
      4 C         138.4227  140.2192  165.3166 C.3     1  UNL1        0.1036
      5 N         139.5127  139.7529  166.2355 N.3     1  UNL1       -0.2653
      6 C         140.5982  138.8566  165.7174 C.3     1  UNL1        0.1036
      7 C         140.5936  138.4266  164.2804 C.3     1  UNL1        0.1470
      8 C         140.5891  137.9966  162.8434 C.3     1  UNL1        0.1035
      9 O         139.5082  139.3229  164.7984 O.3     1  UNL1       -0.3530
     10 C         139.4945  138.0328  160.4874 C.3     1  UNL1        0.0913
     11 C         140.1355  138.8984  159.4434 C.3     1  UNL1        0.1087
     12 N         141.6084  138.7904  159.1806 N.3     1  UNL1       -0.1779
     13 H         141.8812  137.8372  159.4204 H       1  UNL1        0.1488
     14 S         142.5653  139.7051  159.8860 S.O2    1  UNL1        0.0637
     15 O         143.7046  138.8066  159.5057 O.2     1  UNL1       -0.1529
     16 O         141.4259  140.6036  160.2663 O.2     1  UNL1       -0.1529
     17 C         143.6709  142.5618  158.7608 C.3     1  UNL1        0.0555
     18 C         144.0303  141.9329  160.0743 C.ar    1  UNL1        0.0998
     19 N         144.9610  142.5067  161.1012 N.ar    1  UNL1       -0.1714
     20 N         145.0280  141.5482  162.2531 N.ar    1  UNL1       -0.2372
     21 C         145.8415  141.7248  163.5009 C.3     1  UNL1        0.1548
     22 C         144.1387  140.3821  161.9380 C.ar    1  UNL1        0.1546
     23 CL        143.9067  139.1879  162.8156 Cl      1  UNL1       -0.0603
     24 C         143.5221  140.6198  160.5915 C.ar    1  UNL1        0.1649
     25 C         139.5172  140.1829  167.6725 C.3     1  UNL1        0.1202
     26 C         140.2501  141.4264  168.0810 C.3     1  UNL1        0.2226
     27 O         141.3076  142.0018  167.1863 O.3     1  UNL1       -0.4740
     28 C         140.9184  142.8755  166.0309 C.ar    1  UNL1        0.1387
     29 C         141.8137  142.9759  164.8316 C.ar    1  UNL1        0.0376
     30 C         141.4244  143.8497  163.6761 C.ar    1  UNL1        0.0134
     31 C         140.1398  144.6229  163.7199 C.ar    1  UNL1        0.0686
     32 C         139.2445  144.5225  164.9192 C.ar    1  UNL1        0.0134
     33 C         139.6338  143.6488  166.0747 C.ar    1  UNL1        0.0376
     34 C         139.7506  145.4966  162.5645 C.1     1  UNL1        0.1004
     35 N         139.3613  146.3703  161.4089 N.1     1  UNL1       -0.1908
@<TRIPOS>BOND
     1    17    18    1
     2    18    19   ar
     3    19    20   ar
     4    20    21    1
     5    20    22   ar
     6    22    23    1
     7    22    24   ar
     8    24    14    1
     9    14    15    2
    10    14    16    2
    11    14    12    1
    12    12    11    1
    13    11    10    1
    14    10     1    1
    15     1     2    1
    16     2     3    1
    17     3     4    1
    18     4     5    1
    19     5    25    1
    20    25    26    1
    21    26    27    1
    22    27    28    1
    23    28    29   ar
    24    29    30   ar
    25    30    31   ar
    26    31    34    1
    27    34    35    3
    28    31    32   ar
    29    32    33   ar
    30     5     6    1
    31     6     7    1
    32     7     8    1
    33     7     9    1
    34    24    18   ar
    35     8     1    1
    36     9     3    1
    37    33    28   ar
    38    12    13    1
@<TRIPOS>MOLECULE
*****
 35 38 0 0 0
SMALL
GASTEIGER

@<TRIPOS>ATOM
      1 N         139.4696  144.2471  162.9655 N.3     1  UNL1       -0.2673
      2 C         138.5106  143.1405  162.6403 C.3     1  UNL1        0.1035
      3 C         138.4414  141.9261  163.5181 C.3     1  UNL1        0.1470
      4 C         138.3721  140.7116  164.3958 C.3     1  UNL1        0.1036
      5 N         139.2618  140.6039  165.5986 N.3     1  UNL1       -0.2653
      6 C         140.2208  141.7106  165.9237 C.3     1  UNL1        0.1036
      7 C         140.2901  142.9249  165.0460 C.3     1  UNL1        0.1470
      8 C         140.3593  144.1393  164.1683 C.3     1  UNL1        0.1035
      9 O         139.3311  141.8183  164.7209 O.3     1  UNL1       -0.3530
     10 C         139.5389  145.4616  162.0877 C.3     1  UNL1        0.0913
     11 C         140.3733  145.4396  160.8414 C.3     1  UNL1        0.1087
     12 N         141.8377  145.1256  160.9247 N.3     1  UNL1       -0.1779
     13 H         142.3111  145.7550  160.2764 H       1  UNL1        0.1488
     14 S         142.3265  143.7409  160.6186 S.O2    1  UNL1        0.0637
     15 O         143.5320  143.9761  161.4797 O.2     1  UNL1       -0.1529
     16 O         141.1210  143.5057  159.7576 O.2     1  UNL1       -0.1529
     17 C         144.0678  142.8555  158.0045 C.3     1  UNL1        0.0555
     18 C         143.6156  141.9492  159.1110 C.ar    1  UNL1        0.0998
     19 N         143.8845  140.4769  159.2101 N.ar    1  UNL1       -0.1714
     20 N         143.2503  139.9739  160.4730 N.ar    1  UNL1       -0.2372
     21 C         143.2729  138.5580  160.9677 C.3     1  UNL1        0.1548
     22 C         142.5895  141.1354  161.1543 C.ar    1  UNL1        0.1546
     23 CL        141.8353  141.0850  162.4499 Cl      1  UNL1       -0.0603
     24 C         142.8153  142.3563  160.3126 C.ar    1  UNL1        0.1649
     25 C         139.1925  139.3895  166.4763 C.3     1  UNL1        0.1202
     26 C         138.2505  139.3602  167.6433 C.3     1  UNL1        0.2226
     27 O         138.7765  139.5400  169.0365 O.3     1  UNL1       -0.4740
     28 C         140.0598  140.2827  169.2636 C.ar    1  UNL1        0.1387
     29 C         141.3716  139.5629  169.1583 C.ar    1  UNL1        0.0376
     30 C         142.6550  140.3056  169.3854 C.ar    1  UNL1        0.0134
     31 C         142.6264  141.7680  169.7178 C.ar    1  UNL1        0.0686
     32 C         141.3146  142.4878  169.8230 C.ar    1  UNL1        0.0134
     33 C         140.0313  141.7452  169.5959 C.ar    1  UNL1        0.0376
     34 C         143.9097  142.5107  169.9448 C.1     1  UNL1        0.1004
     35 N         145.1930  143.2534  170.1720 N.1     1  UNL1       -0.1908
@<TRIPOS>BOND
     1    17    18    1
     2    18    19   ar
     3    19    20   ar
     4    20    21    1
     5    20    22   ar
     6    22    23    1
     7    22    24   ar
     8    24    14    1
     9    14    15    2
    10    14    16    2
    11    14    12    1
    12    12    11    1
    13    11    10    1
    14    10     1    1
    15     1     2    1
    16     2     3    1
    17     3     4    1
    18     4     5    1
    19     5    25    1
    20    25    26    1
    21    26    27    1
    22    27    28    1
    23    28    29   ar
    24    29    30   ar
    25    30    31   ar
    26    31    34    1
    27    34    35    3
    28    31    32   ar
    29    32    33   ar
    30     5     6    1
    31     6     7    1
    32     7     8    1
    33     7     9    1
    34    24    18   ar
    35     8     1    1
    36     9     3    1
    37    33    28   ar
    38    12    13    1
