@<TRIPOS>MOLECULE
*****
 33 36 0 0 0
SMALL
GASTEIGER

@<TRIPOS>ATOM
      1 N         142.6908  140.4353  167.8187 N.3     1  UNL1       -0.2653
      2 C         142.9384  139.5725  166.6170 C.3     1  UNL1        0.1036
      3 C         143.4665  140.1818  165.3522 C.3     1  UNL1        0.1470
      4 C         143.9947  140.7910  164.0873 C.3     1  UNL1        0.1035
      5 N         144.2753  142.2632  164.0242 N.3     1  UNL1       -0.2673
      6 C         144.0277  143.1261  165.2260 C.3     1  UNL1        0.1035
      7 C         143.4996  142.5168  166.4908 C.3     1  UNL1        0.1470
      8 C         142.9714  141.9075  167.7556 C.3     1  UNL1        0.1036
      9 O         143.7471  141.6539  165.2891 O.3     1  UNL1       -0.3530
     10 C         142.1626  139.8261  169.0836 C.3     1  UNL1        0.1202
     11 C         140.7096  139.9605  169.4310 C.3     1  UNL1        0.2226
     12 O         139.8209  140.8468  168.6096 O.3     1  UNL1       -0.4740
     13 C         138.6009  139.5898  164.4645 C.ar    1  UNL1        0.0686
     14 C         138.2819  138.7125  165.6387 C.ar    1  UNL1        0.0134
     15 C         138.6886  139.1315  167.0204 C.ar    1  UNL1        0.0376
     16 C         139.4142  140.4278  167.2279 C.ar    1  UNL1        0.1387
     17 C         139.7333  141.3050  166.0538 C.ar    1  UNL1        0.0376
     18 C         139.3266  140.8861  164.6720 C.ar    1  UNL1        0.0134
     19 N         137.7876  138.7518  161.7012 N.1     1  UNL1       -0.1908
     20 C         138.1943  139.1708  163.0828 C.1     1  UNL1        0.1004
     21 C         144.8035  142.8725  162.7594 C.3     1  UNL1        0.0913
     22 C         143.8525  143.4174  161.7353 C.3     1  UNL1        0.1087
     23 N         143.0468  144.6457  162.0385 N.3     1  UNL1       -0.1780
     24 H         142.9615  145.1650  161.1647 H       1  UNL1        0.1488
     25 S         141.6625  144.5146  162.6012 S.O2    1  UNL1        0.0603
     26 O         141.3352  143.4888  161.5569 O.2     1  UNL1       -0.1530
     27 O         141.9899  145.5404  163.6454 O.2     1  UNL1       -0.1530
     28 C         140.2782  144.3835  163.1639 C.ar    1  UNL1        0.1219
     29 C         140.0001  144.8038  164.5767 C.ar    1  UNL1        0.0199
     30 C         138.6159  144.6727  165.1395 C.ar    1  UNL1        0.0014
     31 C         137.5098  144.1215  164.2894 C.ar    1  UNL1        0.0001
     32 C         137.7879  143.7012  162.8766 C.ar    1  UNL1        0.0014
     33 C         139.1722  143.8323  162.3139 C.ar    1  UNL1        0.0199
@<TRIPOS>BOND
     1    19    20    3
     2    20    13    1
     3    13    14   ar
     4    14    15   ar
     5    15    16   ar
     6    16    12    1
     7    12    11    1
     8    11    10    1
     9    10     1    1
    10     1     2    1
    11     2     3    1
    12     3     4    1
    13     4     5    1
    14     5    21    1
    15    21    22    1
    16    22    23    1
    17    23    25    1
    18    25    26    2
    19    25    27    2
    20    25    28    1
    21    28    29   ar
    22    29    30   ar
    23    30    31   ar
    24    31    32   ar
    25    32    33   ar
    26     5     6    1
    27     6     7    1
    28     7     8    1
    29     7     9    1
    30    16    17   ar
    31    17    18   ar
    32    18    13   ar
    33     8     1    1
    34     9     3    1
    35    33    28   ar
    36    23    24    1
@<TRIPOS>MOLECULE
*****
 33 36 0 0 0
SMALL
GASTEIGER

@<TRIPOS>ATOM
      1 N         139.3103  139.0916  161.7329 N.3     1  UNL1       -0.2653
      2 C         138.1275  139.8101  161.1543 C.3     1  UNL1        0.1036
      3 C         138.3150  141.1286  160.4640 C.3     1  UNL1        0.1470
      4 C         138.5024  142.4471  159.7738 C.3     1  UNL1        0.1035
      5 N         139.8726  143.0471  159.6621 N.3     1  UNL1       -0.2673
      6 C         141.0554  142.3285  160.2407 C.3     1  UNL1        0.1035
      7 C         140.8680  141.0101  160.9310 C.3     1  UNL1        0.1470
      8 C         140.6805  139.6916  161.6212 C.3     1  UNL1        0.1036
      9 O         139.6852  141.7286  160.3524 O.3     1  UNL1       -0.3530
     10 C         139.1229  137.7731  162.4231 C.3     1  UNL1        0.1202
     11 C         138.8473  137.7306  163.8970 C.3     1  UNL1        0.2226
     12 O         138.6986  139.0079  164.6693 O.3     1  UNL1       -0.4740
     13 C         141.5434  139.9521  168.0257 C.ar    1  UNL1        0.0686
     14 C         140.0630  140.0452  168.2487 C.ar    1  UNL1        0.0134
     15 C         139.1147  139.7305  167.1299 C.ar    1  UNL1        0.0376
     16 C         139.6468  139.3226  165.7881 C.ar    1  UNL1        0.1387
     17 C         141.1272  139.2295  165.5651 C.ar    1  UNL1        0.0376
     18 C         142.0755  139.5442  166.6839 C.ar    1  UNL1        0.0134
     19 N         143.4399  140.5815  170.2633 N.1     1  UNL1       -0.1908
     20 C         142.4917  140.2668  169.1445 C.1     1  UNL1        0.1004
     21 C         140.0601  144.3656  158.9719 C.3     1  UNL1        0.0913
     22 C         140.4279  145.5830  159.7673 C.3     1  UNL1        0.1087
     23 N         139.5974  145.9854  160.9498 N.3     1  UNL1       -0.1780
     24 H         138.6212  145.8762  160.6749 H       1  UNL1        0.1488
     25 S         139.7610  145.2717  162.2589 S.O2    1  UNL1        0.0603
     26 O         138.2721  145.1233  162.3641 O.2     1  UNL1       -0.1530
     27 O         141.2499  145.4201  162.1537 O.2     1  UNL1       -0.1530
     28 C         139.9246  144.5580  163.5681 C.ar    1  UNL1        0.1219
     29 C         141.0851  143.6308  163.7768 C.ar    1  UNL1        0.0199
     30 C         141.2488  142.9170  165.0859 C.ar    1  UNL1        0.0014
     31 C         140.2520  143.1305  166.1862 C.ar    1  UNL1        0.0001
     32 C         139.0915  144.0577  165.9775 C.ar    1  UNL1        0.0014
     33 C         138.9278  144.7714  164.6684 C.ar    1  UNL1        0.0199
@<TRIPOS>BOND
     1    19    20    3
     2    20    13    1
     3    13    14   ar
     4    14    15   ar
     5    15    16   ar
     6    16    12    1
     7    12    11    1
     8    11    10    1
     9    10     1    1
    10     1     2    1
    11     2     3    1
    12     3     4    1
    13     4     5    1
    14     5    21    1
    15    21    22    1
    16    22    23    1
    17    23    25    1
    18    25    26    2
    19    25    27    2
    20    25    28    1
    21    28    29   ar
    22    29    30   ar
    23    30    31   ar
    24    31    32   ar
    25    32    33   ar
    26     5     6    1
    27     6     7    1
    28     7     8    1
    29     7     9    1
    30    16    17   ar
    31    17    18   ar
    32    18    13   ar
    33     8     1    1
    34     9     3    1
    35    33    28   ar
    36    23    24    1
@<TRIPOS>MOLECULE
*****
 33 36 0 0 0
SMALL
GASTEIGER

@<TRIPOS>ATOM
      1 N         138.4823  139.8293  164.9331 N.3     1  UNL1       -0.2653
      2 C         137.9191  140.0915  163.5678 C.3     1  UNL1        0.1036
      3 C         138.0161  141.4625  162.9672 C.3     1  UNL1        0.1470
      4 C         138.1131  142.8336  162.3665 C.3     1  UNL1        0.1035
      5 N         138.7732  143.9425  163.1311 N.3     1  UNL1       -0.2673
      6 C         139.3363  143.6802  164.4965 C.3     1  UNL1        0.1035
      7 C         139.2393  142.3092  165.0972 C.3     1  UNL1        0.1470
      8 C         139.1423  140.9382  165.6978 C.3     1  UNL1        0.1036
      9 O         138.6762  142.5714  163.7318 O.3     1  UNL1       -0.3530
     10 C         138.3853  138.4582  165.5338 C.3     1  UNL1        0.1202
     11 C         139.2370  137.3442  165.0014 C.3     1  UNL1        0.2226
     12 O         140.7284  137.4973  164.9536 O.3     1  UNL1       -0.4740
     13 C         142.7378  138.7766  161.1358 C.ar    1  UNL1        0.0686
     14 C         141.3355  138.2449  161.1037 C.ar    1  UNL1        0.0134
     15 C         140.6657  137.8185  162.3763 C.ar    1  UNL1        0.0376
     16 C         141.3982  137.9237  163.6810 C.ar    1  UNL1        0.1387
     17 C         142.8004  138.4553  163.7132 C.ar    1  UNL1        0.0376
     18 C         143.4703  138.8818  162.4406 C.ar    1  UNL1        0.0134
     19 N         144.0774  139.6294  158.5907 N.1     1  UNL1       -0.1908
     20 C         143.4076  139.2030  159.8632 C.1     1  UNL1        0.1004
     21 C         138.8701  145.3135  162.5305 C.3     1  UNL1        0.0913
     22 C         140.1467  145.7592  161.8809 C.3     1  UNL1        0.1087
     23 N         141.3703  145.9955  162.7157 N.3     1  UNL1       -0.1780
     24 H         141.0473  146.1851  163.6645 H       1  UNL1        0.1488
     25 S         142.4231  144.9323  162.8210 S.O2    1  UNL1        0.0603
     26 O         142.3018  144.6665  161.3497 O.2     1  UNL1       -0.1530
     27 O         142.5444  145.1981  164.2922 O.2     1  UNL1       -0.1530
     28 C         143.4760  143.8691  162.9263 C.ar    1  UNL1        0.1219
     29 C         144.0227  143.2294  161.6846 C.ar    1  UNL1        0.0199
     30 C         145.0756  142.1662  161.7898 C.ar    1  UNL1        0.0014
     31 C         145.5816  141.7427  163.1369 C.ar    1  UNL1        0.0001
     32 C         145.0349  142.3823  164.3786 C.ar    1  UNL1        0.0014
     33 C         143.9820  143.4455  164.2733 C.ar    1  UNL1        0.0199
@<TRIPOS>BOND
     1    19    20    3
     2    20    13    1
     3    13    14   ar
     4    14    15   ar
     5    15    16   ar
     6    16    12    1
     7    12    11    1
     8    11    10    1
     9    10     1    1
    10     1     2    1
    11     2     3    1
    12     3     4    1
    13     4     5    1
    14     5    21    1
    15    21    22    1
    16    22    23    1
    17    23    25    1
    18    25    26    2
    19    25    27    2
    20    25    28    1
    21    28    29   ar
    22    29    30   ar
    23    30    31   ar
    24    31    32   ar
    25    32    33   ar
    26     5     6    1
    27     6     7    1
    28     7     8    1
    29     7     9    1
    30    16    17   ar
    31    17    18   ar
    32    18    13   ar
    33     8     1    1
    34     9     3    1
    35    33    28   ar
    36    23    24    1
@<TRIPOS>MOLECULE
*****
 33 36 0 0 0
SMALL
GASTEIGER

@<TRIPOS>ATOM
      1 N         139.2059  139.1296  162.8691 N.3     1  UNL1       -0.2653
      2 C         138.2792  140.2784  163.1368 C.3     1  UNL1        0.1036
      3 C         138.4311  141.5587  162.3703 C.3     1  UNL1        0.1470
      4 C         138.5829  142.8392  161.6038 C.3     1  UNL1        0.1035
      5 N         139.6614  142.9709  160.5697 N.3     1  UNL1       -0.2673
      6 C         140.5881  141.8221  160.3020 C.3     1  UNL1        0.1035
      7 C         140.4362  140.5417  161.0684 C.3     1  UNL1        0.1470
      8 C         140.2844  139.2613  161.8349 C.3     1  UNL1        0.1036
      9 O         139.5096  141.6904  161.3361 O.3     1  UNL1       -0.3530
     10 C         139.0541  137.8492  163.6355 C.3     1  UNL1        0.1202
     11 C         139.9582  137.5583  164.7965 C.3     1  UNL1        0.2226
     12 O         141.0336  138.5341  165.1725 O.3     1  UNL1       -0.4740
     13 C         140.8878  140.6178  169.1584 C.ar    1  UNL1        0.0686
     14 C         139.6365  140.4663  168.3450 C.ar    1  UNL1        0.0134
     15 C         139.6852  139.7718  167.0164 C.ar    1  UNL1        0.0376
     16 C         140.9850  139.2287  166.5011 C.ar    1  UNL1        0.1387
     17 C         142.2362  139.3801  167.3144 C.ar    1  UNL1        0.0376
     18 C         142.1876  140.0747  168.6431 C.ar    1  UNL1        0.0134
     19 N         140.7905  142.0069  171.8155 N.1     1  UNL1       -0.1908
     20 C         140.8392  141.3124  170.4869 C.1     1  UNL1        0.1004
     21 C         139.8133  144.2513  159.8032 C.3     1  UNL1        0.0913
     22 C         140.5353  145.4130  160.4191 C.3     1  UNL1        0.1087
     23 N         141.9630  145.2635  160.8540 N.3     1  UNL1       -0.1780
     24 H         142.3622  146.2017  160.8814 H       1  UNL1        0.1488
     25 S         142.2825  144.6183  162.1699 S.O2    1  UNL1        0.0603
     26 O         143.4940  143.9768  161.5612 O.2     1  UNL1       -0.1530
     27 O         141.0710  145.2598  162.7786 O.2     1  UNL1       -0.1530
     28 C         142.6020  143.9731  163.4859 C.ar    1  UNL1        0.1219
     29 C         144.0091  143.9859  164.0054 C.ar    1  UNL1        0.0199
     30 C         144.3286  143.3408  165.3213 C.ar    1  UNL1        0.0014
     31 C         143.2410  142.6828  166.1177 C.ar    1  UNL1        0.0001
     32 C         141.8339  142.6700  165.5981 C.ar    1  UNL1        0.0014
     33 C         141.5144  143.3152  164.2822 C.ar    1  UNL1        0.0199
@<TRIPOS>BOND
     1    19    20    3
     2    20    13    1
     3    13    14   ar
     4    14    15   ar
     5    15    16   ar
     6    16    12    1
     7    12    11    1
     8    11    10    1
     9    10     1    1
    10     1     2    1
    11     2     3    1
    12     3     4    1
    13     4     5    1
    14     5    21    1
    15    21    22    1
    16    22    23    1
    17    23    25    1
    18    25    26    2
    19    25    27    2
    20    25    28    1
    21    28    29   ar
    22    29    30   ar
    23    30    31   ar
    24    31    32   ar
    25    32    33   ar
    26     5     6    1
    27     6     7    1
    28     7     8    1
    29     7     9    1
    30    16    17   ar
    31    17    18   ar
    32    18    13   ar
    33     8     1    1
    34     9     3    1
    35    33    28   ar
    36    23    24    1
@<TRIPOS>MOLECULE
*****
 33 36 0 0 0
SMALL
GASTEIGER

@<TRIPOS>ATOM
      1 N         140.3930  138.6950  162.5414 N.3     1  UNL1       -0.2653
      2 C         141.7206  139.3320  162.8273 C.3     1  UNL1        0.1036
      3 C         142.2142  140.4560  161.9655 C.3     1  UNL1        0.1470
      4 C         142.7079  141.5802  161.1037 C.3     1  UNL1        0.1035
      5 N         141.8739  142.0673  159.9559 N.3     1  UNL1       -0.2673
      6 C         140.5463  141.4303  159.6701 C.3     1  UNL1        0.1035
      7 C         140.0527  140.3062  160.5319 C.3     1  UNL1        0.1470
      8 C         139.5591  139.1821  161.3937 C.3     1  UNL1        0.1036
      9 O         141.3802  140.9432  160.8178 O.3     1  UNL1       -0.3530
     10 C         139.8993  137.5709  163.4032 C.3     1  UNL1        0.1202
     11 C         139.1895  137.8688  164.6906 C.3     1  UNL1        0.2226
     12 O         138.6541  139.2457  164.9507 O.3     1  UNL1       -0.4740
     13 C         140.4997  141.8092  168.1556 C.ar    1  UNL1        0.0686
     14 C         139.7271  140.5795  168.5311 C.ar    1  UNL1        0.0134
     15 C         139.1119  139.7250  167.4627 C.ar    1  UNL1        0.0376
     16 C         139.2693  140.1002  166.0190 C.ar    1  UNL1        0.1387
     17 C         140.0418  141.3298  165.6435 C.ar    1  UNL1        0.0376
     18 C         140.6570  142.1844  166.7119 C.ar    1  UNL1        0.0134
     19 N         141.7300  143.5182  170.2923 N.1     1  UNL1       -0.1908
     20 C         141.1148  142.6637  169.2239 C.1     1  UNL1        0.1004
     21 C         142.3675  143.1914  159.0941 C.3     1  UNL1        0.0913
     22 C         141.7202  144.5419  159.1794 C.3     1  UNL1        0.1087
     23 N         141.7086  145.2872  160.4810 N.3     1  UNL1       -0.1780
     24 H         141.5604  146.2709  160.2558 H       1  UNL1        0.1488
     25 S         140.7088  144.9302  161.5407 S.O2    1  UNL1        0.0603
     26 O         141.8049  144.8983  162.5641 O.2     1  UNL1       -0.1530
     27 O         139.6127  144.9622  160.5173 O.2     1  UNL1       -0.1530
     28 C         139.7089  144.5733  162.6004 C.ar    1  UNL1        0.1219
     29 C         139.8054  145.1945  163.9623 C.ar    1  UNL1        0.0199
     30 C         138.8056  144.8376  165.0220 C.ar    1  UNL1        0.0014
     31 C         137.7093  143.8594  164.7198 C.ar    1  UNL1        0.0001
     32 C         137.6129  143.2382  163.3579 C.ar    1  UNL1        0.0014
     33 C         138.6127  143.5951  162.2982 C.ar    1  UNL1        0.0199
@<TRIPOS>BOND
     1    19    20    3
     2    20    13    1
     3    13    14   ar
     4    14    15   ar
     5    15    16   ar
     6    16    12    1
     7    12    11    1
     8    11    10    1
     9    10     1    1
    10     1     2    1
    11     2     3    1
    12     3     4    1
    13     4     5    1
    14     5    21    1
    15    21    22    1
    16    22    23    1
    17    23    25    1
    18    25    26    2
    19    25    27    2
    20    25    28    1
    21    28    29   ar
    22    29    30   ar
    23    30    31   ar
    24    31    32   ar
    25    32    33   ar
    26     5     6    1
    27     6     7    1
    28     7     8    1
    29     7     9    1
    30    16    17   ar
    31    17    18   ar
    32    18    13   ar
    33     8     1    1
    34     9     3    1
    35    33    28   ar
    36    23    24    1
@<TRIPOS>MOLECULE
*****
 33 36 0 0 0
SMALL
GASTEIGER

@<TRIPOS>ATOM
      1 N         139.4736  137.7313  164.4823 N.3     1  UNL1       -0.2653
      2 C         138.9052  137.9133  163.1062 C.3     1  UNL1        0.1036
      3 C         139.8224  138.1180  161.9371 C.3     1  UNL1        0.1470
      4 C         140.7395  138.3228  160.7679 C.3     1  UNL1        0.1035
      5 N         142.2250  138.3456  160.9749 N.3     1  UNL1       -0.2673
      6 C         142.7933  138.1636  162.3511 C.3     1  UNL1        0.1035
      7 C         141.8762  137.9588  163.5202 C.3     1  UNL1        0.1470
      8 C         140.9590  137.7541  164.6894 C.3     1  UNL1        0.1036
      9 O         141.3078  138.1408  162.1441 O.3     1  UNL1       -0.3530
     10 C         138.5564  137.5266  165.6516 C.3     1  UNL1        0.1202
     11 C         138.0951  138.7041  166.4581 C.3     1  UNL1        0.2226
     12 O         139.0695  139.7778  166.8429 O.3     1  UNL1       -0.4740
     13 C         139.6568  143.3475  164.1667 C.ar    1  UNL1        0.0686
     14 C         138.4870  142.4334  163.9519 C.ar    1  UNL1        0.0134
     15 C         138.2913  141.2435  164.8439 C.ar    1  UNL1        0.0376
     16 C         139.2652  140.9677  165.9508 C.ar    1  UNL1        0.1387
     17 C         140.4350  141.8817  166.1657 C.ar    1  UNL1        0.0376
     18 C         140.6308  143.0717  165.2737 C.ar    1  UNL1        0.0134
     19 N         140.0484  145.7273  162.3827 N.1     1  UNL1       -0.1908
     20 C         139.8526  144.5374  163.2747 C.1     1  UNL1        0.1004
     21 C         143.1421  138.5503  159.8058 C.3     1  UNL1        0.0913
     22 C         143.7063  139.9114  159.5244 C.3     1  UNL1        0.1087
     23 N         142.9249  141.1379  159.8921 N.3     1  UNL1       -0.1780
     24 H         141.9462  140.8566  159.9514 H       1  UNL1        0.1488
     25 S         143.2408  141.8766  161.1587 S.O2    1  UNL1        0.0603
     26 O         144.6471  142.0908  160.6831 O.2     1  UNL1       -0.1530
     27 O         141.8344  141.6624  161.6343 O.2     1  UNL1       -0.1530
     28 C         143.5566  142.6154  162.4255 C.ar    1  UNL1        0.1219
     29 C         144.0286  141.8634  163.6345 C.ar    1  UNL1        0.0199
     30 C         144.3444  142.6021  164.9012 C.ar    1  UNL1        0.0014
     31 C         144.1882  144.0928  164.9588 C.ar    1  UNL1        0.0001
     32 C         143.7162  144.8448  163.7498 C.ar    1  UNL1        0.0014
     33 C         143.4004  144.1061  162.4831 C.ar    1  UNL1        0.0199
@<TRIPOS>BOND
     1    19    20    3
     2    20    13    1
     3    13    14   ar
     4    14    15   ar
     5    15    16   ar
     6    16    12    1
     7    12    11    1
     8    11    10    1
     9    10     1    1
    10     1     2    1
    11     2     3    1
    12     3     4    1
    13     4     5    1
    14     5    21    1
    15    21    22    1
    16    22    23    1
    17    23    25    1
    18    25    26    2
    19    25    27    2
    20    25    28    1
    21    28    29   ar
    22    29    30   ar
    23    30    31   ar
    24    31    32   ar
    25    32    33   ar
    26     5     6    1
    27     6     7    1
    28     7     8    1
    29     7     9    1
    30    16    17   ar
    31    17    18   ar
    32    18    13   ar
    33     8     1    1
    34     9     3    1
    35    33    28   ar
    36    23    24    1
@<TRIPOS>MOLECULE
*****
 33 36 0 0 0
SMALL
GASTEIGER

@<TRIPOS>ATOM
      1 N         144.1690  142.7514  162.6296 N.3     1  UNL1       -0.2653
      2 C         143.8854  144.0325  163.3563 C.3     1  UNL1        0.1036
      3 C         142.5080  144.6254  163.3216 C.3     1  UNL1        0.1470
      4 C         141.1305  145.2183  163.2869 C.3     1  UNL1        0.1035
      5 N         140.0367  144.5300  162.5254 N.3     1  UNL1       -0.2673
      6 C         140.3204  143.2488  161.7986 C.3     1  UNL1        0.1035
      7 C         141.6978  142.6560  161.8333 C.3     1  UNL1        0.1470
      8 C         143.0752  142.0631  161.8681 C.3     1  UNL1        0.1036
      9 O         141.4142  143.9371  162.5601 O.3     1  UNL1       -0.3530
     10 C         145.5464  142.1585  162.6643 C.3     1  UNL1        0.1202
     11 C         145.9170  141.1851  163.7437 C.3     1  UNL1        0.2226
     12 O         145.0726  139.9676  163.9780 O.3     1  UNL1       -0.4740
     13 C         142.1626  139.8738  167.4092 C.ar    1  UNL1        0.0686
     14 C         142.9075  138.6303  167.0233 C.ar    1  UNL1        0.0134
     15 C         143.8775  138.6616  165.8795 C.ar    1  UNL1        0.0376
     16 C         144.1027  139.9363  165.1217 C.ar    1  UNL1        0.1387
     17 C         143.3578  141.1798  165.5076 C.ar    1  UNL1        0.0376
     18 C         142.3878  141.1486  166.6514 C.ar    1  UNL1        0.0134
     19 N         140.2227  139.8112  169.6966 N.1     1  UNL1       -0.1908
     20 C         141.1927  139.8425  168.5529 C.1     1  UNL1        0.1004
     21 C         138.6594  145.1229  162.4906 C.3     1  UNL1        0.0913
     22 C         137.5115  144.3906  163.1202 C.3     1  UNL1        0.1087
     23 N         137.7187  143.6229  164.3920 N.3     1  UNL1       -0.1780
     24 H         136.8601  143.7150  164.9349 H       1  UNL1        0.1488
     25 S         138.0433  142.1594  164.3402 S.O2    1  UNL1        0.0603
     26 O         137.0392  141.9756  163.2411 O.2     1  UNL1       -0.1530
     27 O         139.0474  142.3431  165.4392 O.2     1  UNL1       -0.1530
     28 C         138.3679  140.6958  164.2883 C.ar    1  UNL1        0.1219
     29 C         138.1971  139.9346  163.0071 C.ar    1  UNL1        0.0199
     30 C         138.5217  138.4711  162.9552 C.ar    1  UNL1        0.0014
     31 C         139.0170  137.7687  164.1846 C.ar    1  UNL1        0.0001
     32 C         139.1878  138.5299  165.4658 C.ar    1  UNL1        0.0014
     33 C         138.8633  139.9934  165.5176 C.ar    1  UNL1        0.0199
@<TRIPOS>BOND
     1    19    20    3
     2    20    13    1
     3    13    14   ar
     4    14    15   ar
     5    15    16   ar
     6    16    12    1
     7    12    11    1
     8    11    10    1
     9    10     1    1
    10     1     2    1
    11     2     3    1
    12     3     4    1
    13     4     5    1
    14     5    21    1
    15    21    22    1
    16    22    23    1
    17    23    25    1
    18    25    26    2
    19    25    27    2
    20    25    28    1
    21    28    29   ar
    22    29    30   ar
    23    30    31   ar
    24    31    32   ar
    25    32    33   ar
    26     5     6    1
    27     6     7    1
    28     7     8    1
    29     7     9    1
    30    16    17   ar
    31    17    18   ar
    32    18    13   ar
    33     8     1    1
    34     9     3    1
    35    33    28   ar
    36    23    24    1
@<TRIPOS>MOLECULE
*****
 33 36 0 0 0
SMALL
GASTEIGER

@<TRIPOS>ATOM
      1 N         139.0830  140.8116  165.9180 N.3     1  UNL1       -0.2653
      2 C         138.2169  140.9577  164.7021 C.3     1  UNL1        0.1036
      3 C         138.4090  142.1253  163.7804 C.3     1  UNL1        0.1470
      4 C         138.6011  143.2930  162.8586 C.3     1  UNL1        0.1035
      5 N         139.6594  144.3146  163.1527 N.3     1  UNL1       -0.2673
      6 C         140.5255  144.1685  164.3687 C.3     1  UNL1        0.1035
      7 C         140.3333  143.0008  165.2905 C.3     1  UNL1        0.1470
      8 C         140.1412  141.8332  166.2122 C.3     1  UNL1        0.1036
      9 O         139.4672  143.1469  164.0745 O.3     1  UNL1       -0.3530
     10 C         138.8909  139.6439  166.8398 C.3     1  UNL1        0.1202
     11 C         137.9717  138.5243  166.4505 C.3     1  UNL1        0.2226
     12 O         138.5153  137.3202  165.7401 O.3     1  UNL1       -0.4740
     13 C         141.1235  137.8366  162.1096 C.ar    1  UNL1        0.0686
     14 C         141.7471  137.6129  163.4555 C.ar    1  UNL1        0.0134
     15 C         140.8776  137.4408  164.6656 C.ar    1  UNL1        0.0376
     16 C         139.3847  137.4923  164.5299 C.ar    1  UNL1        0.1387
     17 C         138.7611  137.7160  163.1842 C.ar    1  UNL1        0.0376
     18 C         139.6305  137.8881  161.9740 C.ar    1  UNL1        0.0134
     19 N         142.8623  138.1809  159.6894 N.1     1  UNL1       -0.1908
     20 C         141.9929  138.0087  160.8995 C.1     1  UNL1        0.1004
     21 C         139.8515  145.4822  162.2310 C.3     1  UNL1        0.0913
     22 C         140.9936  145.4902  161.2586 C.3     1  UNL1        0.1087
     23 N         141.5020  144.1994  160.6882 N.3     1  UNL1       -0.1780
     24 H         141.9635  144.4280  159.8078 H       1  UNL1        0.1488
     25 S         142.4631  143.3587  161.4752 S.O2    1  UNL1        0.0603
     26 O         143.2777  144.5796  161.7847 O.2     1  UNL1       -0.1530
     27 O         141.6485  142.1378  161.1658 O.2     1  UNL1       -0.1530
     28 C         143.4242  142.5178  162.2623 C.ar    1  UNL1        0.1219
     29 C         144.3163  143.1569  163.2849 C.ar    1  UNL1        0.0199
     30 C         145.2774  142.3161  164.0720 C.ar    1  UNL1        0.0014
     31 C         145.3464  140.8364  163.8363 C.ar    1  UNL1        0.0001
     32 C         144.4543  140.1974  162.8137 C.ar    1  UNL1        0.0014
     33 C         143.4932  141.0381  162.0267 C.ar    1  UNL1        0.0199
@<TRIPOS>BOND
     1    19    20    3
     2    20    13    1
     3    13    14   ar
     4    14    15   ar
     5    15    16   ar
     6    16    12    1
     7    12    11    1
     8    11    10    1
     9    10     1    1
    10     1     2    1
    11     2     3    1
    12     3     4    1
    13     4     5    1
    14     5    21    1
    15    21    22    1
    16    22    23    1
    17    23    25    1
    18    25    26    2
    19    25    27    2
    20    25    28    1
    21    28    29   ar
    22    29    30   ar
    23    30    31   ar
    24    31    32   ar
    25    32    33   ar
    26     5     6    1
    27     6     7    1
    28     7     8    1
    29     7     9    1
    30    16    17   ar
    31    17    18   ar
    32    18    13   ar
    33     8     1    1
    34     9     3    1
    35    33    28   ar
    36    23    24    1
@<TRIPOS>MOLECULE
*****
 33 36 0 0 0
SMALL
GASTEIGER

@<TRIPOS>ATOM
      1 N         143.1198  139.3335  164.2211 N.3     1  UNL1       -0.2653
      2 C         144.3724  140.0870  163.8847 C.3     1  UNL1        0.1036
      3 C         144.3939  141.0200  162.7105 C.3     1  UNL1        0.1470
      4 C         144.4154  141.9531  161.5361 C.3     1  UNL1        0.1035
      5 N         143.1842  142.1327  160.6982 N.3     1  UNL1       -0.2673
      6 C         141.9316  141.3791  161.0347 C.3     1  UNL1        0.1035
      7 C         141.9101  140.4461  162.2090 C.3     1  UNL1        0.1470
      8 C         141.8887  139.5130  163.3832 C.3     1  UNL1        0.1036
      9 O         143.1627  141.1996  161.8726 O.3     1  UNL1       -0.3530
     10 C         143.0983  138.4004  165.3954 C.3     1  UNL1        0.1202
     11 C         143.7144  138.8191  166.6974 C.3     1  UNL1        0.2226
     12 O         142.8928  138.8124  167.9524 O.3     1  UNL1       -0.4740
     13 C         141.0312  142.6283  169.4434 C.ar    1  UNL1        0.0686
     14 C         140.1821  141.4082  169.2422 C.ar    1  UNL1        0.0134
     15 C         140.8026  140.1362  168.7452 C.ar    1  UNL1        0.0376
     16 C         142.2722  140.0843  168.4494 C.ar    1  UNL1        0.1387
     17 C         143.1213  141.3044  168.6506 C.ar    1  UNL1        0.0376
     18 C         142.5008  142.5764  169.1476 C.ar    1  UNL1        0.0134
     19 N         139.7901  145.1722  170.4373 N.1     1  UNL1       -0.1908
     20 C         140.4106  143.9003  169.9404 C.1     1  UNL1        0.1004
     21 C         143.2056  143.0657  159.5240 C.3     1  UNL1        0.0913
     22 C         142.0653  144.0138  159.2984 C.3     1  UNL1        0.1087
     23 N         141.7639  145.0787  160.3109 N.3     1  UNL1       -0.1780
     24 H         141.4081  145.8834  159.7949 H       1  UNL1        0.1488
     25 S         140.7876  144.8073  161.4168 S.O2    1  UNL1        0.0603
     26 O         139.6641  144.7994  160.4229 O.2     1  UNL1       -0.1530
     27 O         141.9110  144.8152  162.4106 O.2     1  UNL1       -0.1530
     28 C         139.8112  144.5359  162.5227 C.ar    1  UNL1        0.1219
     29 C         138.5919  143.7029  162.2591 C.ar    1  UNL1        0.0199
     30 C         137.6156  143.4315  163.3650 C.ar    1  UNL1        0.0014
     31 C         137.8585  143.9930  164.7345 C.ar    1  UNL1        0.0001
     32 C         139.0777  144.8260  164.9981 C.ar    1  UNL1        0.0014
     33 C         140.0541  145.0975  163.8922 C.ar    1  UNL1        0.0199
@<TRIPOS>BOND
     1    19    20    3
     2    20    13    1
     3    13    14   ar
     4    14    15   ar
     5    15    16   ar
     6    16    12    1
     7    12    11    1
     8    11    10    1
     9    10     1    1
    10     1     2    1
    11     2     3    1
    12     3     4    1
    13     4     5    1
    14     5    21    1
    15    21    22    1
    16    22    23    1
    17    23    25    1
    18    25    26    2
    19    25    27    2
    20    25    28    1
    21    28    29   ar
    22    29    30   ar
    23    30    31   ar
    24    31    32   ar
    25    32    33   ar
    26     5     6    1
    27     6     7    1
    28     7     8    1
    29     7     9    1
    30    16    17   ar
    31    17    18   ar
    32    18    13   ar
    33     8     1    1
    34     9     3    1
    35    33    28   ar
    36    23    24    1
