@<TRIPOS>MOLECULE
*****
 31 34 0 0 0
SMALL
GASTEIGER

@<TRIPOS>ATOM
      1 C         142.6389  142.1765  164.3370 C.ar    1  UNL1        0.0858
      2 C         143.2932  141.4051  163.2294 C.ar    1  UNL1        0.0399
      3 C         143.3344  141.9737  161.8420 C.ar    1  UNL1        0.1032
      4 N         143.9887  141.2023  160.7344 N.ar    1  UNL1       -0.2405
      5 C         144.0299  141.7709  159.3470 C.ar    1  UNL1        0.1195
      6 C         143.4167  143.1110  159.0672 C.ar    1  UNL1        0.1196
      7 N         142.7624  143.8824  160.1747 N.ar    1  UNL1       -0.2379
      8 C         142.7213  143.3138  161.5621 C.ar    1  UNL1        0.1302
      9 C         142.0670  144.0852  162.6698 C.ar    1  UNL1        0.1477
     10 N         142.0258  143.5166  164.0572 N.ar    1  UNL1       -0.2292
     11 C         142.5154  140.4706  168.4993 C.ar    1  UNL1        0.1318
     12 C         142.9858  141.8778  168.2791 C.ar    1  UNL1        0.0344
     13 C         143.0270  142.4465  166.8917 C.ar    1  UNL1        0.0059
     14 C         142.5978  141.6079  165.7245 C.ar    1  UNL1        0.0370
     15 C         142.1274  140.2007  165.9446 C.ar    1  UNL1        0.1018
     16 N         142.0862  139.6320  167.3320 N.ar    1  UNL1       -0.2291
     17 C         142.8087  138.4578  170.1157 C.3     1  UNL1        0.1136
     18 N         142.4742  139.9020  169.8868 N.pl3   1  UNL1       -0.2897
     19 C         142.0985  140.7776  171.0453 C.3     1  UNL1        0.1136
     20 N         141.4538  145.4252  162.3900 N.pl3   1  UNL1       -0.3167
     21 H         142.0306  146.2095  162.2430 H       1  UNL1        0.1482
     22 C         139.9619  145.5705  162.3340 C.3     1  UNL1        0.0950
     23 C         139.0825  144.3847  162.5996 C.3     1  UNL1        0.0965
     24 C         138.7685  143.4210  161.4939 C.3     1  UNL1        0.0757
     25 N         137.8891  142.2353  161.7595 N.3     1  UNL1       -0.2971
     26 C         137.3235  142.0133  163.1309 C.3     1  UNL1        0.0742
     27 C         137.6374  142.9770  164.2368 C.3     1  UNL1        0.0837
     28 C         138.5169  144.1627  163.9711 C.3     1  UNL1        0.2680
     29 F         139.2936  145.4233  164.2106 F       1  UNL1       -0.2042
     30 F         138.2211  144.3784  165.4257 F       1  UNL1       -0.2042
     31 H         138.4357  141.4057  161.5285 H       1  UNL1        0.1233
@<TRIPOS>BOND
     1    17    18    1
     2    18    19    1
     3    18    11    1
     4    11    12   ar
     5    12    13   ar
     6    13    14   ar
     7    14     1    1
     8     1     2   ar
     9     2     3   ar
    10     3     4   ar
    11     4     5   ar
    12     5     6   ar
    13     6     7   ar
    14     7     8   ar
    15     8     9   ar
    16     9    20    1
    17    20    22    1
    18    23    22    1
    19    23    24    1
    20    24    25    1
    21    25    26    1
    22    26    27    1
    23    27    28    1
    24    28    29    1
    25    28    30    1
    26     9    10   ar
    27    14    15   ar
    28    15    16   ar
    29    16    11   ar
    30    10     1   ar
    31     8     3   ar
    32    28    23    1
    33    20    21    1
    34    25    31    1
@<TRIPOS>MOLECULE
*****
 31 34 0 0 0
SMALL
GASTEIGER

@<TRIPOS>ATOM
      1 C         139.4298  141.8270  164.3593 C.ar    1  UNL1        0.0858
      2 C         139.0984  140.6362  163.5097 C.ar    1  UNL1        0.0399
      3 C         138.7929  140.8164  162.0522 C.ar    1  UNL1        0.1032
      4 N         138.4615  139.6255  161.2025 N.ar    1  UNL1       -0.2405
      5 C         138.1560  139.8058  159.7451 C.ar    1  UNL1        0.1195
      6 C         138.1820  141.1769  159.1373 C.ar    1  UNL1        0.1196
      7 N         138.5134  142.3678  159.9870 N.ar    1  UNL1       -0.2379
      8 C         138.8188  142.1875  161.4444 C.ar    1  UNL1        0.1302
      9 C         139.1503  143.3784  162.2942 C.ar    1  UNL1        0.1477
     10 N         139.4558  143.1981  163.7516 N.ar    1  UNL1       -0.2292
     11 C         140.3463  141.2863  168.7317 C.ar    1  UNL1        0.1318
     12 C         140.6313  142.5980  168.0623 C.ar    1  UNL1        0.0344
     13 C         140.3258  142.7783  166.6049 C.ar    1  UNL1        0.0059
     14 C         139.7353  141.6468  165.8169 C.ar    1  UNL1        0.0370
     15 C         139.4503  140.3350  166.4863 C.ar    1  UNL1        0.1018
     16 N         139.7558  140.1548  167.9437 N.ar    1  UNL1       -0.2291
     17 C         141.5122  142.1051  170.9043 C.3     1  UNL1        0.1136
     18 N         140.6517  141.1060  170.1892 N.pl3   1  UNL1       -0.2897
     19 C         140.0968  139.9267  170.9316 C.3     1  UNL1        0.1136
     20 N         139.1762  144.7495  161.6864 N.pl3   1  UNL1       -0.3167
     21 H         138.3568  145.1302  161.2953 H       1  UNL1        0.1482
     22 C         140.4505  145.5407  161.6745 C.3     1  UNL1        0.0950
     23 C         141.7727  144.8335  161.7161 C.3     1  UNL1        0.0965
     24 C         142.2084  143.9891  160.5555 C.3     1  UNL1        0.0757
     25 N         143.5306  143.2820  160.5970 N.3     1  UNL1       -0.2971
     26 C         144.4172  143.4193  161.7991 C.3     1  UNL1        0.0742
     27 C         143.9815  144.2638  162.9598 C.3     1  UNL1        0.0837
     28 C         142.6593  144.9709  162.9183 C.3     1  UNL1        0.2680
     29 F         141.5059  145.8292  163.3458 F       1  UNL1       -0.2042
     30 F         143.1453  145.4064  164.2689 F       1  UNL1       -0.2042
     31 H         144.0674  143.6141  159.7958 H       1  UNL1        0.1233
@<TRIPOS>BOND
     1    17    18    1
     2    18    19    1
     3    18    11    1
     4    11    12   ar
     5    12    13   ar
     6    13    14   ar
     7    14     1    1
     8     1     2   ar
     9     2     3   ar
    10     3     4   ar
    11     4     5   ar
    12     5     6   ar
    13     6     7   ar
    14     7     8   ar
    15     8     9   ar
    16     9    20    1
    17    20    22    1
    18    23    22    1
    19    23    24    1
    20    24    25    1
    21    25    26    1
    22    26    27    1
    23    27    28    1
    24    28    29    1
    25    28    30    1
    26     9    10   ar
    27    14    15   ar
    28    15    16   ar
    29    16    11   ar
    30    10     1   ar
    31     8     3   ar
    32    28    23    1
    33    20    21    1
    34    25    31    1
@<TRIPOS>MOLECULE
*****
 31 34 0 0 0
SMALL
GASTEIGER

@<TRIPOS>ATOM
      1 C         141.5956  139.7931  164.3493 C.ar    1  UNL1        0.0858
      2 C         140.6635  139.3220  163.2727 C.ar    1  UNL1        0.0399
      3 C         141.1489  139.2065  161.8580 C.ar    1  UNL1        0.1032
      4 N         140.2167  138.7353  160.7814 N.ar    1  UNL1       -0.2405
      5 C         140.7021  138.6199  159.3668 C.ar    1  UNL1        0.1195
      6 C         142.1196  138.9756  159.0289 C.ar    1  UNL1        0.1196
      7 N         143.0517  139.4467  160.1055 N.ar    1  UNL1       -0.2379
      8 C         142.5664  139.5622  161.5200 C.ar    1  UNL1        0.1302
      9 C         143.4985  140.0333  162.5967 C.ar    1  UNL1        0.1477
     10 N         143.0131  140.1488  164.0113 N.ar    1  UNL1       -0.2292
     11 C         140.1397  140.1396  168.5931 C.ar    1  UNL1        0.1318
     12 C         139.1795  139.7822  167.4976 C.ar    1  UNL1        0.0344
     13 C         139.6647  139.6667  166.0830 C.ar    1  UNL1        0.0059
     14 C         141.1103  139.9086  165.7639 C.ar    1  UNL1        0.0370
     15 C         142.0705  140.2660  166.8594 C.ar    1  UNL1        0.1018
     16 N         141.5853  140.3815  168.2740 N.ar    1  UNL1       -0.2291
     17 C         138.2016  140.0524  170.3211 C.3     1  UNL1        0.1136
     18 N         139.6544  140.2550  170.0078 N.pl3   1  UNL1       -0.2897
     19 C         140.6219  140.5732  171.1090 C.3     1  UNL1        0.1136
     20 N         144.9160  140.3890  162.2588 N.pl3   1  UNL1       -0.3167
     21 H         145.4729  139.7590  161.7466 H       1  UNL1        0.1482
     22 C         145.4850  141.7045  162.7011 C.3     1  UNL1        0.0950
     23 C         144.5838  142.8907  162.8759 C.3     1  UNL1        0.0965
     24 C         143.8245  143.4351  161.7025 C.3     1  UNL1        0.0757
     25 N         142.9233  144.6214  161.8772 N.3     1  UNL1       -0.2971
     26 C         142.7814  145.2633  163.2255 C.3     1  UNL1        0.0742
     27 C         143.5408  144.7190  164.3990 C.3     1  UNL1        0.0837
     28 C         144.4420  143.5327  164.2242 C.3     1  UNL1        0.2680
     29 F         145.4108  142.4372  164.5579 F       1  UNL1       -0.2042
     30 F         144.6366  143.7942  165.6884 F       1  UNL1       -0.2042
     31 H         141.9895  144.3264  161.5919 H       1  UNL1        0.1233
@<TRIPOS>BOND
     1    17    18    1
     2    18    19    1
     3    18    11    1
     4    11    12   ar
     5    12    13   ar
     6    13    14   ar
     7    14     1    1
     8     1     2   ar
     9     2     3   ar
    10     3     4   ar
    11     4     5   ar
    12     5     6   ar
    13     6     7   ar
    14     7     8   ar
    15     8     9   ar
    16     9    20    1
    17    20    22    1
    18    23    22    1
    19    23    24    1
    20    24    25    1
    21    25    26    1
    22    26    27    1
    23    27    28    1
    24    28    29    1
    25    28    30    1
    26     9    10   ar
    27    14    15   ar
    28    15    16   ar
    29    16    11   ar
    30    10     1   ar
    31     8     3   ar
    32    28    23    1
    33    20    21    1
    34    25    31    1
@<TRIPOS>MOLECULE
*****
 31 34 0 0 0
SMALL
GASTEIGER

@<TRIPOS>ATOM
      1 C         140.2796  140.0051  164.5610 C.ar    1  UNL1        0.0858
      2 C         139.1702  140.4913  163.6764 C.ar    1  UNL1        0.0399
      3 C         139.1081  140.0548  162.2426 C.ar    1  UNL1        0.1032
      4 N         137.9987  140.5410  161.3579 N.ar    1  UNL1       -0.2405
      5 C         137.9367  140.1045  159.9242 C.ar    1  UNL1        0.1195
      6 C         138.9841  139.1818  159.3752 C.ar    1  UNL1        0.1196
      7 N         140.0936  138.6956  160.2598 N.ar    1  UNL1       -0.2379
      8 C         140.1556  139.1321  161.6935 C.ar    1  UNL1        0.1302
      9 C         141.2651  138.6459  162.5783 C.ar    1  UNL1        0.1477
     10 N         141.3271  139.0824  164.0120 N.ar    1  UNL1       -0.2292
     11 C         140.4658  141.3147  168.8622 C.ar    1  UNL1        0.1318
     12 C         139.5208  140.2251  168.4502 C.ar    1  UNL1        0.0344
     13 C         139.4588  139.7885  167.0165 C.ar    1  UNL1        0.0059
     14 C         140.3417  140.4416  165.9948 C.ar    1  UNL1        0.0370
     15 C         141.2867  141.5312  166.4068 C.ar    1  UNL1        0.1018
     16 N         141.3488  141.9677  167.8405 N.ar    1  UNL1       -0.2291
     17 C         139.6598  142.8765  170.7756 C.3     1  UNL1        0.1136
     18 N         140.5279  141.7512  170.2960 N.pl3   1  UNL1       -0.2897
     19 C         141.4580  141.0623  171.2501 C.3     1  UNL1        0.1136
     20 N         142.3125  137.7232  162.0292 N.pl3   1  UNL1       -0.3167
     21 H         142.0561  136.8382  161.6825 H       1  UNL1        0.1482
     22 C         143.7507  138.1489  162.0085 C.3     1  UNL1        0.0950
     23 C         144.1027  139.5922  161.8011 C.3     1  UNL1        0.0965
     24 C         143.7307  140.2784  160.5203 C.3     1  UNL1        0.0757
     25 N         144.0827  141.7217  160.3130 N.3     1  UNL1       -0.2971
     26 C         144.8069  142.4787  161.3865 C.3     1  UNL1        0.0742
     27 C         145.1790  141.7925  162.6674 C.3     1  UNL1        0.0837
     28 C         144.8269  140.3492  162.8747 C.3     1  UNL1        0.2680
     29 F         144.7126  139.0070  163.5344 F       1  UNL1       -0.2042
     30 F         145.5114  140.6401  164.1774 F       1  UNL1       -0.2042
     31 H         143.2073  142.2168  160.1429 H       1  UNL1        0.1233
@<TRIPOS>BOND
     1    17    18    1
     2    18    19    1
     3    18    11    1
     4    11    12   ar
     5    12    13   ar
     6    13    14   ar
     7    14     1    1
     8     1     2   ar
     9     2     3   ar
    10     3     4   ar
    11     4     5   ar
    12     5     6   ar
    13     6     7   ar
    14     7     8   ar
    15     8     9   ar
    16     9    20    1
    17    20    22    1
    18    23    22    1
    19    23    24    1
    20    24    25    1
    21    25    26    1
    22    26    27    1
    23    27    28    1
    24    28    29    1
    25    28    30    1
    26     9    10   ar
    27    14    15   ar
    28    15    16   ar
    29    16    11   ar
    30    10     1   ar
    31     8     3   ar
    32    28    23    1
    33    20    21    1
    34    25    31    1
@<TRIPOS>MOLECULE
*****
 31 34 0 0 0
SMALL
GASTEIGER

@<TRIPOS>ATOM
      1 C         141.8583  142.1004  164.6333 C.ar    1  UNL1        0.0858
      2 C         142.7762  142.6261  165.6967 C.ar    1  UNL1        0.0399
      3 C         142.6823  142.0971  167.0972 C.ar    1  UNL1        0.1032
      4 N         143.6003  142.6227  168.1607 N.ar    1  UNL1       -0.2405
      5 C         143.5063  142.0937  169.5611 C.ar    1  UNL1        0.1195
      6 C         142.4944  141.0389  169.8980 C.ar    1  UNL1        0.1196
      7 N         141.5764  140.5133  168.8346 N.ar    1  UNL1       -0.2379
      8 C         141.6704  141.0423  167.4342 C.ar    1  UNL1        0.1302
      9 C         140.7524  140.5166  166.3707 C.ar    1  UNL1        0.1477
     10 N         140.8463  141.0457  164.9702 N.ar    1  UNL1       -0.2292
     11 C         142.1400  143.6877  160.4319 C.ar    1  UNL1        0.1318
     12 C         141.3077  142.4736  160.7208 C.ar    1  UNL1        0.0344
     13 C         141.2138  141.9446  162.1212 C.ar    1  UNL1        0.0059
     14 C         141.9522  142.6295  163.2328 C.ar    1  UNL1        0.0370
     15 C         142.7845  143.8435  162.9439 C.ar    1  UNL1        0.1018
     16 N         142.8784  144.3726  161.5435 N.ar    1  UNL1       -0.2291
     17 C         141.4326  145.4190  158.6285 C.3     1  UNL1        0.1136
     18 N         142.2340  144.2167  159.0314 N.pl3   1  UNL1       -0.2897
     19 C         143.1293  143.5435  158.0338 C.3     1  UNL1        0.1136
     20 N         139.7405  139.4619  166.7076 N.pl3   1  UNL1       -0.3167
     21 H         139.8947  138.8571  167.4690 H       1  UNL1        0.1482
     22 C         138.4936  139.3285  165.8845 C.3     1  UNL1        0.0950
     23 C         138.5885  138.9585  164.4340 C.3     1  UNL1        0.0965
     24 C         139.3115  137.7098  164.0243 C.3     1  UNL1        0.0757
     25 N         139.4064  137.3397  162.5737 N.3     1  UNL1       -0.2971
     26 C         138.7782  138.2184  161.5329 C.3     1  UNL1        0.0742
     27 C         138.0551  139.4672  161.9426 C.3     1  UNL1        0.0837
     28 C         137.9603  139.8372  163.3932 C.3     1  UNL1        0.2680
     29 F         137.6044  140.6050  164.6316 F       1  UNL1       -0.2042
     30 F         137.2085  140.9826  162.7824 F       1  UNL1       -0.2042
     31 H         138.9809  136.4178  162.4766 H       1  UNL1        0.1233
@<TRIPOS>BOND
     1    17    18    1
     2    18    19    1
     3    18    11    1
     4    11    12   ar
     5    12    13   ar
     6    13    14   ar
     7    14     1    1
     8     1     2   ar
     9     2     3   ar
    10     3     4   ar
    11     4     5   ar
    12     5     6   ar
    13     6     7   ar
    14     7     8   ar
    15     8     9   ar
    16     9    20    1
    17    20    22    1
    18    23    22    1
    19    23    24    1
    20    24    25    1
    21    25    26    1
    22    26    27    1
    23    27    28    1
    24    28    29    1
    25    28    30    1
    26     9    10   ar
    27    14    15   ar
    28    15    16   ar
    29    16    11   ar
    30    10     1   ar
    31     8     3   ar
    32    28    23    1
    33    20    21    1
    34    25    31    1
@<TRIPOS>MOLECULE
*****
 31 34 0 0 0
SMALL
GASTEIGER

@<TRIPOS>ATOM
      1 C         140.9897  139.8700  164.6656 C.ar    1  UNL1        0.0858
      2 C         142.2729  139.2720  164.1699 C.ar    1  UNL1        0.0399
      3 C         142.3840  138.8080  162.7478 C.ar    1  UNL1        0.1032
      4 N         143.6672  138.2100  162.2521 N.ar    1  UNL1       -0.2405
      5 C         143.7783  137.7460  160.8300 C.ar    1  UNL1        0.1195
      6 C         142.6062  137.8800  159.9037 C.ar    1  UNL1        0.1196
      7 N         141.3230  138.4780  160.3993 N.ar    1  UNL1       -0.2379
      8 C         141.2119  138.9420  161.8214 C.ar    1  UNL1        0.1302
      9 C         139.9287  139.5401  162.3172 C.ar    1  UNL1        0.1477
     10 N         139.8176  140.0040  163.7392 N.ar    1  UNL1       -0.2292
     11 C         140.6563  141.2620  168.9319 C.ar    1  UNL1        0.1318
     12 C         139.6372  140.3157  168.3699 C.ar    1  UNL1        0.0344
     13 C         139.7483  139.8517  166.9479 C.ar    1  UNL1        0.0059
     14 C         140.8785  140.3340  166.0878 C.ar    1  UNL1        0.0370
     15 C         141.8977  141.2804  166.6497 C.ar    1  UNL1        0.1018
     16 N         141.7866  141.7444  168.0718 N.ar    1  UNL1       -0.2291
     17 C         139.7441  142.9508  170.6829 C.3     1  UNL1        0.1136
     18 N         140.5452  141.7261  170.3540 N.pl3   1  UNL1       -0.2897
     19 C         141.2351  140.9652  171.4473 C.3     1  UNL1        0.1136
     20 N         138.7566  139.6741  161.3908 N.pl3   1  UNL1       -0.3167
     21 H         138.6845  139.0914  160.6005 H       1  UNL1        0.1482
     22 C         137.6942  140.6960  161.6684 C.3     1  UNL1        0.0950
     23 C         138.0775  142.1177  161.9544 C.3     1  UNL1        0.0965
     24 C         138.8662  142.8992  160.9459 C.3     1  UNL1        0.0757
     25 N         139.2495  144.3209  161.2319 N.3     1  UNL1       -0.2971
     26 C         138.8441  144.9611  162.5264 C.3     1  UNL1        0.0742
     27 C         138.0553  144.1796  163.5350 C.3     1  UNL1        0.0837
     28 C         137.6720  142.7578  163.2490 C.3     1  UNL1        0.2680
     29 F         137.0760  141.3940  163.4349 F       1  UNL1       -0.2042
     30 F         137.0596  142.9244  164.6081 F       1  UNL1       -0.2042
     31 H         138.8508  144.8894  160.4848 H       1  UNL1        0.1233
@<TRIPOS>BOND
     1    17    18    1
     2    18    19    1
     3    18    11    1
     4    11    12   ar
     5    12    13   ar
     6    13    14   ar
     7    14     1    1
     8     1     2   ar
     9     2     3   ar
    10     3     4   ar
    11     4     5   ar
    12     5     6   ar
    13     6     7   ar
    14     7     8   ar
    15     8     9   ar
    16     9    20    1
    17    20    22    1
    18    23    22    1
    19    23    24    1
    20    24    25    1
    21    25    26    1
    22    26    27    1
    23    27    28    1
    24    28    29    1
    25    28    30    1
    26     9    10   ar
    27    14    15   ar
    28    15    16   ar
    29    16    11   ar
    30    10     1   ar
    31     8     3   ar
    32    28    23    1
    33    20    21    1
    34    25    31    1
@<TRIPOS>MOLECULE
*****
 31 34 0 0 0
SMALL
GASTEIGER

@<TRIPOS>ATOM
      1 C         142.7247  142.0246  163.9843 C.ar    1  UNL1        0.0858
      2 C         142.4465  143.0877  162.9634 C.ar    1  UNL1        0.0399
      3 C         142.8153  142.8629  161.5268 C.ar    1  UNL1        0.1032
      4 N         142.5372  143.9260  160.5059 N.ar    1  UNL1       -0.2405
      5 C         142.9059  143.7011  159.0695 C.ar    1  UNL1        0.1195
      6 C         143.5528  142.4132  158.6540 C.ar    1  UNL1        0.1196
      7 N         143.8310  141.3501  159.6749 N.ar    1  UNL1       -0.2379
      8 C         143.4622  141.5749  161.1114 C.ar    1  UNL1        0.1302
      9 C         143.7404  140.5118  162.1324 C.ar    1  UNL1        0.1477
     10 N         143.3716  140.7367  163.5689 N.ar    1  UNL1       -0.2292
     11 C         141.6185  142.6991  168.2938 C.ar    1  UNL1        0.1318
     12 C         140.5445  142.5825  167.2532 C.ar    1  UNL1        0.0344
     13 C         140.9132  142.3577  165.8167 C.ar    1  UNL1        0.0059
     14 C         142.3559  142.2495  165.4209 C.ar    1  UNL1        0.0370
     15 C         143.4300  142.3661  166.4615 C.ar    1  UNL1        0.1018
     16 N         143.0613  142.5909  167.8979 N.ar    1  UNL1       -0.2291
     17 C         141.6757  141.9378  170.7772 C.3     1  UNL1        0.1136
     18 N         141.2498  142.9240  169.7303 N.pl3   1  UNL1       -0.2897
     19 C         140.4551  144.1350  170.1199 C.3     1  UNL1        0.1136
     20 N         144.3873  139.2238  161.7169 N.pl3   1  UNL1       -0.3167
     21 H         145.3343  139.2129  161.4480 H       1  UNL1        0.1482
     22 C         143.5914  137.9524  161.7112 C.3     1  UNL1        0.0950
     23 C         142.1010  138.0013  161.5483 C.3     1  UNL1        0.0965
     24 C         141.5031  138.3786  160.2254 C.3     1  UNL1        0.0757
     25 N         140.0128  138.4275  160.0625 N.3     1  UNL1       -0.2971
     26 C         139.1204  138.0990  161.2225 C.3     1  UNL1        0.0742
     27 C         139.7183  137.7216  162.5455 C.3     1  UNL1        0.0837
     28 C         141.2086  137.6728  162.7084 C.3     1  UNL1        0.2680
     29 F         142.5508  137.4875  163.3517 F       1  UNL1       -0.2042
     30 F         140.7823  137.2799  164.0918 F       1  UNL1       -0.2042
     31 H         139.7767  137.7746  159.3153 H       1  UNL1        0.1233
@<TRIPOS>BOND
     1    17    18    1
     2    18    19    1
     3    18    11    1
     4    11    12   ar
     5    12    13   ar
     6    13    14   ar
     7    14     1    1
     8     1     2   ar
     9     2     3   ar
    10     3     4   ar
    11     4     5   ar
    12     5     6   ar
    13     6     7   ar
    14     7     8   ar
    15     8     9   ar
    16     9    20    1
    17    20    22    1
    18    23    22    1
    19    23    24    1
    20    24    25    1
    21    25    26    1
    22    26    27    1
    23    27    28    1
    24    28    29    1
    25    28    30    1
    26     9    10   ar
    27    14    15   ar
    28    15    16   ar
    29    16    11   ar
    30    10     1   ar
    31     8     3   ar
    32    28    23    1
    33    20    21    1
    34    25    31    1
@<TRIPOS>MOLECULE
*****
 31 34 0 0 0
SMALL
GASTEIGER

@<TRIPOS>ATOM
      1 C         140.7567  142.2473  165.2184 C.ar    1  UNL1        0.0858
      2 C         140.3276  143.1133  166.3655 C.ar    1  UNL1        0.0399
      3 C         140.5472  142.6528  167.7761 C.ar    1  UNL1        0.1032
      4 N         140.1181  143.5188  168.9232 N.ar    1  UNL1       -0.2405
      5 C         140.3377  143.0582  170.3337 C.ar    1  UNL1        0.1195
      6 C         140.9864  141.7316  170.5972 C.ar    1  UNL1        0.1196
      7 N         141.4154  140.8656  169.4501 N.ar    1  UNL1       -0.2379
      8 C         141.1959  141.3262  168.0396 C.ar    1  UNL1        0.1302
      9 C         141.6249  140.4601  166.8924 C.ar    1  UNL1        0.1477
     10 N         141.4053  140.9207  165.4819 N.ar    1  UNL1       -0.2292
     11 C         140.0979  143.6290  160.9868 C.ar    1  UNL1        0.1318
     12 C         140.5217  142.2157  161.2569 C.ar    1  UNL1        0.0344
     13 C         140.7413  141.7551  162.6674 C.ar    1  UNL1        0.0059
     14 C         140.5371  142.7078  163.8078 C.ar    1  UNL1        0.0370
     15 C         140.1133  144.1211  163.5377 C.ar    1  UNL1        0.1018
     16 N         139.8937  144.5817  162.1272 N.ar    1  UNL1       -0.2291
     17 C         139.2355  143.1717  158.5790 C.3     1  UNL1        0.1136
     18 N         139.8783  144.0895  159.5762 N.pl3   1  UNL1       -0.2897
     19 C         140.3016  145.4679  159.1628 C.3     1  UNL1        0.1136
     20 N         142.2736  139.1335  167.1558 N.pl3   1  UNL1       -0.3167
     21 H         142.0534  138.6317  167.9737 H       1  UNL1        0.1482
     22 C         143.2576  138.5715  166.1731 C.3     1  UNL1        0.0950
     23 C         142.8245  138.2643  164.7703 C.3     1  UNL1        0.0965
     24 C         141.6442  137.3707  164.5285 C.3     1  UNL1        0.0757
     25 N         141.2110  137.0635  163.1256 N.3     1  UNL1       -0.2971
     26 C         141.9581  137.6498  161.9646 C.3     1  UNL1        0.0742
     27 C         143.1385  138.5434  162.2064 C.3     1  UNL1        0.0837
     28 C         143.5716  138.8506  163.6092 C.3     1  UNL1        0.2680
     29 F         144.3592  139.4315  164.7459 F       1  UNL1       -0.2042
     30 F         144.5923  139.6387  162.8429 F       1  UNL1       -0.2042
     31 H         140.2436  137.3756  163.0411 H       1  UNL1        0.1233
@<TRIPOS>BOND
     1    17    18    1
     2    18    19    1
     3    18    11    1
     4    11    12   ar
     5    12    13   ar
     6    13    14   ar
     7    14     1    1
     8     1     2   ar
     9     2     3   ar
    10     3     4   ar
    11     4     5   ar
    12     5     6   ar
    13     6     7   ar
    14     7     8   ar
    15     8     9   ar
    16     9    20    1
    17    20    22    1
    18    23    22    1
    19    23    24    1
    20    24    25    1
    21    25    26    1
    22    26    27    1
    23    27    28    1
    24    28    29    1
    25    28    30    1
    26     9    10   ar
    27    14    15   ar
    28    15    16   ar
    29    16    11   ar
    30    10     1   ar
    31     8     3   ar
    32    28    23    1
    33    20    21    1
    34    25    31    1
@<TRIPOS>MOLECULE
*****
 31 34 0 0 0
SMALL
GASTEIGER

@<TRIPOS>ATOM
      1 C         139.7848  142.2778  164.3842 C.ar    1  UNL1        0.0858
      2 C         140.5430  143.3977  163.7353 C.ar    1  UNL1        0.0399
      3 C         140.3538  143.6844  162.2752 C.ar    1  UNL1        0.1032
      4 N         141.1119  144.8043  161.6263 N.ar    1  UNL1       -0.2405
      5 C         140.9227  145.0909  160.1662 C.ar    1  UNL1        0.1195
      6 C         139.9753  144.2577  159.3549 C.ar    1  UNL1        0.1196
      7 N         139.2172  143.1378  160.0037 N.ar    1  UNL1       -0.2379
      8 C         139.4064  142.8511  161.4639 C.ar    1  UNL1        0.1302
      9 C         138.6482  141.7312  162.1128 C.ar    1  UNL1        0.1477
     10 N         138.8375  141.4446  163.5729 N.ar    1  UNL1       -0.2292
     11 C         140.3523  141.4176  168.7646 C.ar    1  UNL1        0.1318
     12 C         140.7092  142.7660  168.2126 C.ar    1  UNL1        0.0344
     13 C         140.5200  143.0527  166.7525 C.ar    1  UNL1        0.0059
     14 C         139.9740  141.9911  165.8444 C.ar    1  UNL1        0.0370
     15 C         139.6172  140.6428  166.3963 C.ar    1  UNL1        0.1018
     16 N         139.8063  140.3560  167.8564 N.ar    1  UNL1       -0.2291
     17 C         139.9713  139.8794  170.8234 C.3     1  UNL1        0.1136
     18 N         140.5415  141.1309  170.2248 N.pl3   1  UNL1       -0.2897
     19 C         141.3010  142.0959  171.0863 C.3     1  UNL1        0.1136
     20 N         137.7009  140.8980  161.3015 N.pl3   1  UNL1       -0.3167
     21 H         136.9519  141.3256  160.8267 H       1  UNL1        0.1482
     22 C         137.8947  139.4132  161.2134 C.3     1  UNL1        0.0950
     23 C         139.2557  138.8204  161.4283 C.3     1  UNL1        0.0965
     24 C         140.3377  139.0388  160.4126 C.3     1  UNL1        0.0757
     25 N         141.6988  138.4460  160.6274 N.3     1  UNL1       -0.2971
     26 C         141.9778  137.6349  161.8579 C.3     1  UNL1        0.0742
     27 C         140.8958  137.4164  162.8736 C.3     1  UNL1        0.0837
     28 C         139.5348  138.0092  162.6588 C.3     1  UNL1        0.2680
     29 F         138.0973  138.3629  162.9004 F       1  UNL1       -0.2042
     30 F         139.3146  137.3209  163.9732 F       1  UNL1       -0.2042
     31 H         142.3608  139.2220  160.6299 H       1  UNL1        0.1233
@<TRIPOS>BOND
     1    17    18    1
     2    18    19    1
     3    18    11    1
     4    11    12   ar
     5    12    13   ar
     6    13    14   ar
     7    14     1    1
     8     1     2   ar
     9     2     3   ar
    10     3     4   ar
    11     4     5   ar
    12     5     6   ar
    13     6     7   ar
    14     7     8   ar
    15     8     9   ar
    16     9    20    1
    17    20    22    1
    18    23    22    1
    19    23    24    1
    20    24    25    1
    21    25    26    1
    22    26    27    1
    23    27    28    1
    24    28    29    1
    25    28    30    1
    26     9    10   ar
    27    14    15   ar
    28    15    16   ar
    29    16    11   ar
    30    10     1   ar
    31     8     3   ar
    32    28    23    1
    33    20    21    1
    34    25    31    1
