@<TRIPOS>MOLECULE
*****
 36 40 0 0 0
SMALL
GASTEIGER

@<TRIPOS>ATOM
      1 O         141.4345  139.0267  158.7193 O.2     1  UNL1       -0.2706
      2 C         142.3768  137.8904  158.4532 C.2     1  UNL1        0.2701
      3 N         143.1942  137.3161  159.5721 N.am    1  UNL1       -0.2999
      4 H         143.8126  136.5702  159.3974 H       1  UNL1        0.1496
      5 C         143.0693  137.8782  160.9572 C.3     1  UNL1        0.1035
      6 C         143.9643  138.6670  161.8664 C.3     1  UNL1        0.0933
      7 N         142.8926  138.6732  162.9160 N.3     1  UNL1       -0.2711
      8 C         141.9976  137.8843  162.0068 C.3     1  UNL1        0.0933
      9 C         142.7678  139.2353  164.3011 C.3     1  UNL1        0.0576
     10 C         143.0862  138.3780  165.4900 C.3     1  UNL1        0.0163
     11 C         142.9614  138.9401  166.8751 C.3     1  UNL1        0.0057
     12 C         142.5181  140.3596  167.0712 C.3     1  UNL1        0.0224
     13 C         142.1996  141.2169  165.8822 C.3     1  UNL1        0.0057
     14 C         142.3245  140.6548  164.4972 C.3     1  UNL1        0.0163
     15 C         142.3932  140.9218  168.4562 C.ar    1  UNL1       -0.0225
     16 C         141.7615  140.1039  169.5435 C.ar    1  UNL1       -0.0043
     17 C         141.6365  140.6661  170.9286 C.ar    1  UNL1       -0.0003
     18 C         142.1433  142.0461  171.2263 C.ar    1  UNL1       -0.0000
     19 C         142.7749  142.8640  170.1391 C.ar    1  UNL1       -0.0003
     20 C         142.8998  142.3019  168.7540 C.ar    1  UNL1       -0.0043
     21 C         142.5016  137.3282  157.0681 C.3     1  UNL1        0.2850
     22 N         141.2836  136.8297  156.3484 N.pl3   1  UNL1       -0.2091
     23 H         140.4040  137.2321  156.5322 H       1  UNL1        0.2928
     24 C         141.4056  135.7182  155.3486 C.2     1  UNL1        0.3493
     25 N         140.6558  135.6106  154.0539 N.2     1  UNL1        0.0798
     26 N         141.0857  134.3450  153.3731 N.2     1  UNL1       -0.0381
     27 C         142.1012  133.6704  154.2470 C.2     1  UNL1        0.1169
     28 C         142.8714  132.3931  154.0888 C.3     1  UNL1        0.0759
     29 C         143.8393  131.9644  155.1515 C.2     1  UNL1       -0.0158
     30 C         144.0370  132.8131  156.3724 C.2     1  UNL1        0.0678
     31 C         143.2668  134.0905  156.5306 C.2     1  UNL1        0.0123
     32 C         142.2989  134.5191  155.4679 C.2     1  UNL1        0.1019
     33 C         145.0050  132.3844  157.4351 C.3     1  UNL1        0.4183
     34 F         145.9730  131.9556  158.4977 F       1  UNL1       -0.1659
     35 F         144.4510  133.4268  158.3604 F       1  UNL1       -0.1659
     36 F         145.5591  131.3419  156.5098 F       1  UNL1       -0.1659
@<TRIPOS>BOND
     1     1     2    2
     2     2    21    1
     3    21    22    1
     4    22    24    1
     5    24    25    2
     6    25    26    1
     7    26    27    2
     8    27    28    1
     9    28    29    1
    10    29    30    2
    11    30    33    1
    12    33    34    1
    13    33    35    1
    14    33    36    1
    15    30    31    1
    16    31    32    2
    17     2     3   am
    18     3     5    1
    19     5     6    1
    20     6     7    1
    21     9     7    1
    22     9    10    1
    23    10    11    1
    24    11    12    1
    25    12    15    1
    26    15    16   ar
    27    16    17   ar
    28    17    18   ar
    29    18    19   ar
    30    19    20   ar
    31    12    13    1
    32    13    14    1
    33     7     8    1
    34    32    24    1
    35     8     5    1
    36    32    27    1
    37    14     9    1
    38    20    15   ar
    39    22    23    1
    40     3     4    1
@<TRIPOS>MOLECULE
*****
 36 40 0 0 0
SMALL
GASTEIGER

@<TRIPOS>ATOM
      1 O         142.0112  137.4985  157.6213 O.2     1  UNL1       -0.2706
      2 C         143.0648  138.4102  157.0656 C.2     1  UNL1        0.2701
      3 N         143.7742  139.3750  157.9689 N.am    1  UNL1       -0.2999
      4 H         144.4657  139.9734  157.6041 H       1  UNL1        0.1496
      5 C         143.4299  139.4280  159.4279 C.3     1  UNL1        0.1035
      6 C         142.2538  139.9117  160.2233 C.3     1  UNL1        0.0933
      7 N         142.9432  139.5030  161.4913 N.3     1  UNL1       -0.2711
      8 C         144.1194  139.0193  160.6959 C.3     1  UNL1        0.0933
      9 C         142.5990  139.5561  162.9503 C.3     1  UNL1        0.0576
     10 C         142.8287  140.8169  163.7297 C.3     1  UNL1        0.0163
     11 C         142.4845  140.8700  165.1887 C.3     1  UNL1        0.0057
     12 C         141.9106  139.6622  165.8683 C.3     1  UNL1        0.0224
     13 C         141.6809  138.4014  165.0888 C.3     1  UNL1        0.0057
     14 C         142.0251  138.3483  163.6299 C.3     1  UNL1        0.0163
     15 C         141.5663  139.7152  167.3273 C.ar    1  UNL1       -0.0225
     16 C         140.2026  140.1656  167.7602 C.ar    1  UNL1       -0.0043
     17 C         139.8582  140.2185  169.2192 C.ar    1  UNL1       -0.0003
     18 C         140.8776  139.8211  170.2452 C.ar    1  UNL1       -0.0000
     19 C         142.2413  139.3708  169.8124 C.ar    1  UNL1       -0.0003
     20 C         142.5857  139.3178  168.3534 C.ar    1  UNL1       -0.0043
     21 C         143.4090  138.3571  155.6066 C.3     1  UNL1        0.2850
     22 N         143.8911  137.0746  154.9959 N.pl3   1  UNL1       -0.2091
     23 H         144.8391  136.9719  154.7510 H       1  UNL1        0.2928
     24 C         142.9288  135.9488  154.7583 C.2     1  UNL1        0.3493
     25 N         141.7095  136.0003  153.8862 N.2     1  UNL1        0.0798
     26 N         141.0440  134.6571  153.9401 N.2     1  UNL1       -0.0381
     27 C         141.8520  133.7754  154.8456 C.2     1  UNL1        0.1169
     28 C         141.6775  132.3489  155.2749 C.3     1  UNL1        0.0759
     29 C         142.6679  131.7206  156.2100 C.2     1  UNL1       -0.0158
     30 C         143.8328  132.5189  156.7157 C.2     1  UNL1        0.0678
     31 C         144.0073  133.9455  156.2863 C.2     1  UNL1        0.0123
     32 C         143.0169  134.5738  155.3513 C.2     1  UNL1        0.1019
     33 C         144.8232  131.8906  157.6508 C.3     1  UNL1        0.4183
     34 F         145.8136  131.2623  158.5858 F       1  UNL1       -0.1659
     35 F         144.9093  133.1741  158.4222 F       1  UNL1       -0.1659
     36 F         144.7372  130.6071  156.8794 F       1  UNL1       -0.1659
@<TRIPOS>BOND
     1     1     2    2
     2     2    21    1
     3    21    22    1
     4    22    24    1
     5    24    25    2
     6    25    26    1
     7    26    27    2
     8    27    28    1
     9    28    29    1
    10    29    30    2
    11    30    33    1
    12    33    34    1
    13    33    35    1
    14    33    36    1
    15    30    31    1
    16    31    32    2
    17     2     3   am
    18     3     5    1
    19     5     6    1
    20     6     7    1
    21     9     7    1
    22     9    10    1
    23    10    11    1
    24    11    12    1
    25    12    15    1
    26    15    16   ar
    27    16    17   ar
    28    17    18   ar
    29    18    19   ar
    30    19    20   ar
    31    12    13    1
    32    13    14    1
    33     7     8    1
    34    32    24    1
    35     8     5    1
    36    32    27    1
    37    14     9    1
    38    20    15   ar
    39    22    23    1
    40     3     4    1
@<TRIPOS>MOLECULE
*****
 36 40 0 0 0
SMALL
GASTEIGER

@<TRIPOS>ATOM
      1 O         140.6967  138.5229  158.0375 O.2     1  UNL1       -0.2706
      2 C         142.0325  137.8672  157.8483 C.2     1  UNL1        0.2701
      3 N         142.9779  137.7433  159.0062 N.am    1  UNL1       -0.2999
      4 H         143.8546  137.3129  158.8820 H       1  UNL1        0.1496
      5 C         142.5875  138.2751  160.3533 C.3     1  UNL1        0.1035
      6 C         143.1145  139.3427  161.2656 C.3     1  UNL1        0.0933
      7 N         142.0354  139.0270  162.2585 N.3     1  UNL1       -0.2711
      8 C         141.5083  137.9594  161.3462 C.3     1  UNL1        0.0933
      9 C         141.6450  139.5588  163.6057 C.3     1  UNL1        0.0576
     10 C         142.4224  139.1580  164.8243 C.3     1  UNL1        0.0163
     11 C         142.0320  139.6897  166.1714 C.3     1  UNL1        0.0057
     12 C         140.8642  140.6224  166.3000 C.3     1  UNL1        0.0224
     13 C         140.0869  141.0232  165.0813 C.3     1  UNL1        0.0057
     14 C         140.4773  140.4915  163.7342 C.3     1  UNL1        0.0163
     15 C         140.4738  141.1542  167.6470 C.ar    1  UNL1       -0.0225
     16 C         139.7179  140.2837  168.6067 C.ar    1  UNL1       -0.0043
     17 C         139.3273  140.8154  169.9539 C.ar    1  UNL1       -0.0003
     18 C         139.6927  142.2177  170.3413 C.ar    1  UNL1       -0.0000
     19 C         140.4486  143.0882  169.3817 C.ar    1  UNL1       -0.0003
     20 C         140.8391  142.5564  168.0346 C.ar    1  UNL1       -0.0043
     21 C         142.4229  137.3355  156.5011 C.3     1  UNL1        0.2850
     22 N         141.9168  135.9983  156.0472 N.pl3   1  UNL1       -0.2091
     23 H         141.1514  135.9451  155.4303 H       1  UNL1        0.2928
     24 C         142.5770  134.7421  156.5333 C.2     1  UNL1        0.3493
     25 N         143.6781  134.6608  157.5486 N.2     1  UNL1        0.0798
     26 N         144.0335  133.2151  157.7321 N.2     1  UNL1       -0.0381
     27 C         143.1520  132.4029  156.8303 C.2     1  UNL1        0.1169
     28 C         143.0528  130.9260  156.5881 C.3     1  UNL1        0.0759
     29 C         142.0533  130.3928  155.6049 C.2     1  UNL1       -0.0158
     30 C         141.1531  131.3365  154.8639 C.2     1  UNL1        0.0678
     31 C         141.2523  132.8134  155.1061 C.2     1  UNL1        0.0123
     32 C         142.2518  133.3467  156.0893 C.2     1  UNL1        0.1019
     33 C         140.1536  130.8032  153.8807 C.3     1  UNL1        0.4183
     34 F         139.1541  130.2699  152.8976 F       1  UNL1       -0.1659
     35 F         141.1340  131.0200  152.7664 F       1  UNL1       -0.1659
     36 F         139.1732  130.5864  154.9950 F       1  UNL1       -0.1659
@<TRIPOS>BOND
     1     1     2    2
     2     2    21    1
     3    21    22    1
     4    22    24    1
     5    24    25    2
     6    25    26    1
     7    26    27    2
     8    27    28    1
     9    28    29    1
    10    29    30    2
    11    30    33    1
    12    33    34    1
    13    33    35    1
    14    33    36    1
    15    30    31    1
    16    31    32    2
    17     2     3   am
    18     3     5    1
    19     5     6    1
    20     6     7    1
    21     9     7    1
    22     9    10    1
    23    10    11    1
    24    11    12    1
    25    12    15    1
    26    15    16   ar
    27    16    17   ar
    28    17    18   ar
    29    18    19   ar
    30    19    20   ar
    31    12    13    1
    32    13    14    1
    33     7     8    1
    34    32    24    1
    35     8     5    1
    36    32    27    1
    37    14     9    1
    38    20    15   ar
    39    22    23    1
    40     3     4    1
@<TRIPOS>MOLECULE
*****
 36 40 0 0 0
SMALL
GASTEIGER

@<TRIPOS>ATOM
      1 O         144.0570  139.3787  158.7414 O.2     1  UNL1       -0.2706
      2 C         142.9464  138.7039  157.9924 C.2     1  UNL1        0.2701
      3 N         141.6162  138.4930  158.6526 N.am    1  UNL1       -0.2999
      4 H         140.8873  138.0500  158.1610 H       1  UNL1        0.1496
      5 C         141.3966  138.9570  160.0620 C.3     1  UNL1        0.1035
      6 C         141.3391  138.2866  161.4026 C.3     1  UNL1        0.0933
      7 N         141.0860  139.6133  162.0553 N.3     1  UNL1       -0.2711
      8 C         141.1435  140.2837  160.7147 C.3     1  UNL1        0.0933
      9 C         140.8664  140.0773  163.4647 C.3     1  UNL1        0.0576
     10 C         139.4783  140.3759  163.9483 C.3     1  UNL1        0.0163
     11 C         139.2587  140.8399  165.3577 C.3     1  UNL1        0.0057
     12 C         140.4272  141.0054  166.2835 C.3     1  UNL1        0.0224
     13 C         141.8154  140.7068  165.7998 C.3     1  UNL1        0.0057
     14 C         142.0349  140.2428  164.3905 C.3     1  UNL1        0.0163
     15 C         140.2077  141.4694  167.6929 C.ar    1  UNL1       -0.0225
     16 C         139.6160  140.5352  168.7065 C.ar    1  UNL1       -0.0043
     17 C         139.3965  140.9991  170.1160 C.ar    1  UNL1       -0.0003
     18 C         139.7687  142.3971  170.5119 C.ar    1  UNL1       -0.0000
     19 C         140.3603  143.3313  169.4984 C.ar    1  UNL1       -0.0003
     20 C         140.5799  142.8674  168.0889 C.ar    1  UNL1       -0.0043
     21 C         143.1660  138.2398  156.5829 C.3     1  UNL1        0.2850
     22 N         143.6917  136.8595  156.3210 N.pl3   1  UNL1       -0.2091
     23 H         144.6350  136.6483  156.5080 H       1  UNL1        0.2928
     24 C         142.7803  135.8010  155.7744 C.2     1  UNL1        0.3493
     25 N         141.6137  136.0287  154.8594 N.2     1  UNL1        0.0798
     26 N         140.9879  134.6974  154.5662 N.2     1  UNL1       -0.0381
     27 C         141.7676  133.6469  155.3001 C.2     1  UNL1        0.1169
     28 C         141.6121  132.1575  155.3849 C.3     1  UNL1        0.0759
     29 C         142.5643  131.3501  156.2163 C.2     1  UNL1       -0.0158
     30 C         143.6721  132.0322  156.9630 C.2     1  UNL1        0.0678
     31 C         143.8277  133.5217  156.8782 C.2     1  UNL1        0.0123
     32 C         142.8754  134.3290  156.0468 C.2     1  UNL1        0.1019
     33 C         144.6243  131.2247  157.7945 C.3     1  UNL1        0.4183
     34 F         145.5766  130.4174  158.6259 F       1  UNL1       -0.1659
     35 F         143.6280  130.1048  157.8480 F       1  UNL1       -0.1659
     36 F         145.6207  132.3447  157.7409 F       1  UNL1       -0.1659
@<TRIPOS>BOND
     1     1     2    2
     2     2    21    1
     3    21    22    1
     4    22    24    1
     5    24    25    2
     6    25    26    1
     7    26    27    2
     8    27    28    1
     9    28    29    1
    10    29    30    2
    11    30    33    1
    12    33    34    1
    13    33    35    1
    14    33    36    1
    15    30    31    1
    16    31    32    2
    17     2     3   am
    18     3     5    1
    19     5     6    1
    20     6     7    1
    21     9     7    1
    22     9    10    1
    23    10    11    1
    24    11    12    1
    25    12    15    1
    26    15    16   ar
    27    16    17   ar
    28    17    18   ar
    29    18    19   ar
    30    19    20   ar
    31    12    13    1
    32    13    14    1
    33     7     8    1
    34    32    24    1
    35     8     5    1
    36    32    27    1
    37    14     9    1
    38    20    15   ar
    39    22    23    1
    40     3     4    1
@<TRIPOS>MOLECULE
*****
 36 40 0 0 0
SMALL
GASTEIGER

@<TRIPOS>ATOM
      1 O         139.5901  144.5552  160.3576 O.2     1  UNL1       -0.2706
      2 C         139.5442  143.5340  161.4553 C.2     1  UNL1        0.2701
      3 N         140.6313  142.5068  161.5701 N.am    1  UNL1       -0.2999
      4 H         140.6012  141.8366  162.2906 H       1  UNL1        0.1496
      5 C         141.7643  142.5010  160.5872 C.3     1  UNL1        0.1035
      6 C         142.4290  141.4560  159.7409 C.3     1  UNL1        0.0933
      7 N         143.3667  142.4928  159.1970 N.3     1  UNL1       -0.2711
      8 C         142.7021  143.5378  160.0432 C.3     1  UNL1        0.0933
      9 C         144.4998  142.4869  158.2141 C.3     1  UNL1        0.0576
     10 C         145.8777  142.8826  158.6555 C.3     1  UNL1        0.0163
     11 C         147.0107  142.8767  157.6725 C.3     1  UNL1        0.0057
     12 C         146.7658  142.4752  156.2482 C.3     1  UNL1        0.0224
     13 C         145.3879  142.0795  155.8068 C.3     1  UNL1        0.0057
     14 C         144.2549  142.0854  156.7897 C.3     1  UNL1        0.0163
     15 C         147.8988  142.4693  155.2652 C.ar    1  UNL1       -0.0225
     16 C         147.7540  143.1754  153.9496 C.ar    1  UNL1       -0.0043
     17 C         148.8868  143.1696  152.9665 C.ar    1  UNL1       -0.0003
     18 C         150.1645  142.4576  153.2989 C.ar    1  UNL1       -0.0000
     19 C         150.3094  141.7515  154.6144 C.ar    1  UNL1       -0.0003
     20 C         149.1765  141.7573  155.5975 C.ar    1  UNL1       -0.0043
     21 C         138.4112  143.5398  162.4382 C.3     1  UNL1        0.2850
     22 N         137.3755  142.4554  162.3955 N.pl3   1  UNL1       -0.2091
     23 H         136.4200  142.6847  162.4553 H       1  UNL1        0.2928
     24 C         137.7959  141.0218  162.2617 C.2     1  UNL1        0.3493
     25 N         137.9742  140.2717  160.9751 N.2     1  UNL1        0.0798
     26 N         138.4002  138.8728  161.3093 N.2     1  UNL1       -0.0381
     27 C         138.4852  138.7584  162.8026 C.2     1  UNL1        0.1169
     28 C         138.8544  137.6164  163.7023 C.3     1  UNL1        0.0759
     29 C         138.8500  137.8026  165.1907 C.2     1  UNL1       -0.0158
     30 C         138.4765  139.1308  165.7793 C.2     1  UNL1        0.0678
     31 C         138.1073  140.2727  164.8795 C.2     1  UNL1        0.0123
     32 C         138.1116  140.0865  163.3912 C.2     1  UNL1        0.1019
     33 C         138.4722  139.3169  167.2677 C.3     1  UNL1        0.4183
     34 F         138.4678  139.5030  168.7561 F       1  UNL1       -0.1659
     35 F         139.7919  140.0248  167.1831 F       1  UNL1       -0.1659
     36 F         137.1525  138.6090  167.3524 F       1  UNL1       -0.1659
@<TRIPOS>BOND
     1     1     2    2
     2     2    21    1
     3    21    22    1
     4    22    24    1
     5    24    25    2
     6    25    26    1
     7    26    27    2
     8    27    28    1
     9    28    29    1
    10    29    30    2
    11    30    33    1
    12    33    34    1
    13    33    35    1
    14    33    36    1
    15    30    31    1
    16    31    32    2
    17     2     3   am
    18     3     5    1
    19     5     6    1
    20     6     7    1
    21     9     7    1
    22     9    10    1
    23    10    11    1
    24    11    12    1
    25    12    15    1
    26    15    16   ar
    27    16    17   ar
    28    17    18   ar
    29    18    19   ar
    30    19    20   ar
    31    12    13    1
    32    13    14    1
    33     7     8    1
    34    32    24    1
    35     8     5    1
    36    32    27    1
    37    14     9    1
    38    20    15   ar
    39    22    23    1
    40     3     4    1
@<TRIPOS>MOLECULE
*****
 36 40 0 0 0
SMALL
GASTEIGER

@<TRIPOS>ATOM
      1 O         140.9280  137.2536  162.4220 O.2     1  UNL1       -0.2706
      2 C         140.2383  138.3173  163.2237 C.2     1  UNL1        0.2701
      3 N         140.4786  139.7649  162.9130 N.am    1  UNL1       -0.2999
      4 H         140.0260  140.4631  163.4392 H       1  UNL1        0.1496
      5 C         141.4086  140.1488  161.8004 C.3     1  UNL1        0.1035
      6 C         141.2421  140.7719  160.4462 C.3     1  UNL1        0.0933
      7 N         142.7239  140.6916  160.2270 N.3     1  UNL1       -0.2711
      8 C         142.8904  140.0685  161.5813 C.3     1  UNL1        0.0933
      9 C         143.6539  141.0755  159.1145 C.3     1  UNL1        0.0576
     10 C         144.4087  142.3700  159.1809 C.3     1  UNL1        0.0163
     11 C         145.3387  142.7539  158.0683 C.3     1  UNL1        0.0057
     12 C         145.5138  141.8432  156.8893 C.3     1  UNL1        0.0224
     13 C         144.7589  140.5487  156.8230 C.3     1  UNL1        0.0057
     14 C         143.8290  140.1649  157.9355 C.3     1  UNL1        0.0163
     15 C         146.4437  142.2270  155.7767 C.ar    1  UNL1       -0.0225
     16 C         145.9519  143.0889  154.6519 C.ar    1  UNL1       -0.0043
     17 C         146.8817  143.4728  153.5392 C.ar    1  UNL1       -0.0003
     18 C         148.3034  142.9946  153.5514 C.ar    1  UNL1       -0.0000
     19 C         148.7953  142.1328  154.6762 C.ar    1  UNL1       -0.0003
     20 C         147.8654  141.7489  155.7889 C.ar    1  UNL1       -0.0043
     21 C         139.3084  137.9334  164.3363 C.3     1  UNL1        0.2850
     22 N         138.4959  138.9856  165.0314 N.pl3   1  UNL1       -0.2091
     23 H         137.7688  139.4434  164.5508 H       1  UNL1        0.2928
     24 C         138.7913  139.3401  166.4587 C.2     1  UNL1        0.3493
     25 N         137.9732  138.9459  167.6525 N.2     1  UNL1        0.0798
     26 N         138.6330  139.5132  168.8743 N.2     1  UNL1       -0.0381
     27 C         139.8589  140.2580  168.4356 C.2     1  UNL1        0.1169
     28 C         140.8987  141.0198  169.2026 C.3     1  UNL1        0.0759
     29 C         142.0364  141.6745  168.4767 C.2     1  UNL1       -0.0158
     30 C         142.1342  141.5675  166.9837 C.2     1  UNL1        0.0678
     31 C         141.0944  140.8057  166.2167 C.2     1  UNL1        0.0123
     32 C         139.9568  140.1510  166.9426 C.2     1  UNL1        0.1019
     33 C         143.2720  142.2224  166.2578 C.3     1  UNL1        0.4183
     34 F         144.4096  142.8772  165.5320 F       1  UNL1       -0.1659
     35 F         142.7584  141.6751  164.9591 F       1  UNL1       -0.1659
     36 F         143.7855  142.7696  167.5565 F       1  UNL1       -0.1659
@<TRIPOS>BOND
     1     1     2    2
     2     2    21    1
     3    21    22    1
     4    22    24    1
     5    24    25    2
     6    25    26    1
     7    26    27    2
     8    27    28    1
     9    28    29    1
    10    29    30    2
    11    30    33    1
    12    33    34    1
    13    33    35    1
    14    33    36    1
    15    30    31    1
    16    31    32    2
    17     2     3   am
    18     3     5    1
    19     5     6    1
    20     6     7    1
    21     9     7    1
    22     9    10    1
    23    10    11    1
    24    11    12    1
    25    12    15    1
    26    15    16   ar
    27    16    17   ar
    28    17    18   ar
    29    18    19   ar
    30    19    20   ar
    31    12    13    1
    32    13    14    1
    33     7     8    1
    34    32    24    1
    35     8     5    1
    36    32    27    1
    37    14     9    1
    38    20    15   ar
    39    22    23    1
    40     3     4    1
@<TRIPOS>MOLECULE
*****
 36 40 0 0 0
SMALL
GASTEIGER

@<TRIPOS>ATOM
      1 O         142.3276  145.3193  158.5224 O.2     1  UNL1       -0.2706
      2 C         140.9112  145.7471  158.2759 C.2     1  UNL1        0.2701
      3 N         139.8728  145.5526  159.3408 N.am    1  UNL1       -0.2999
      4 H         138.9431  145.8333  159.1789 H       1  UNL1        0.1496
      5 C         140.2509  144.9302  160.6522 C.3     1  UNL1        0.1035
      6 C         140.3695  143.5255  161.1646 C.3     1  UNL1        0.0933
      7 N         140.7856  144.0502  162.5068 N.3     1  UNL1       -0.2711
      8 C         140.6669  145.4550  161.9945 C.3     1  UNL1        0.0933
      9 C         141.1637  143.4279  163.8182 C.3     1  UNL1        0.0576
     10 C         142.5547  142.9074  164.0280 C.3     1  UNL1        0.0163
     11 C         142.9328  142.2851  165.3394 C.3     1  UNL1        0.0057
     12 C         141.9198  142.1832  166.4410 C.3     1  UNL1        0.0224
     13 C         140.5287  142.7038  166.2312 C.3     1  UNL1        0.0057
     14 C         140.1507  143.3261  164.9198 C.3     1  UNL1        0.0163
     15 C         142.2978  141.5610  167.7524 C.ar    1  UNL1       -0.0225
     16 C         143.1356  142.3276  168.7326 C.ar    1  UNL1       -0.0043
     17 C         143.5136  141.7054  170.0440 C.ar    1  UNL1       -0.0003
     18 C         143.0539  140.3166  170.3754 C.ar    1  UNL1       -0.0000
     19 C         142.2161  139.5499  169.3953 C.ar    1  UNL1       -0.0003
     20 C         141.8381  140.1722  168.0839 C.ar    1  UNL1       -0.0043
     21 C         140.5331  146.3694  156.9645 C.3     1  UNL1        0.2850
     22 N         140.1948  145.4985  155.7909 N.pl3   1  UNL1       -0.2091
     23 H         140.7996  145.4612  155.0150 H       1  UNL1        0.2928
     24 C         138.9349  144.6845  155.7995 C.2     1  UNL1        0.3493
     25 N         137.6390  145.0587  155.1432 N.2     1  UNL1        0.0798
     26 N         136.6529  143.9589  155.4040 N.2     1  UNL1       -0.0381
     27 C         137.3393  142.9050  156.2214 C.2     1  UNL1        0.1169
     28 C         136.8624  141.5949  156.7747 C.3     1  UNL1        0.0759
     29 C         137.7958  140.7333  157.5724 C.2     1  UNL1       -0.0158
     30 C         139.2062  141.1818  157.8168 C.2     1  UNL1        0.0678
     31 C         139.6831  142.4919  157.2635 C.2     1  UNL1        0.0123
     32 C         138.7497  143.3535  156.4658 C.2     1  UNL1        0.1019
     33 C         140.1396  140.3202  158.6146 C.3     1  UNL1        0.4183
     34 F         141.0730  139.4586  159.4123 F       1  UNL1       -0.1659
     35 F         139.1153  139.2245  158.6298 F       1  UNL1       -0.1659
     36 F         141.1639  141.4159  158.5994 F       1  UNL1       -0.1659
@<TRIPOS>BOND
     1     1     2    2
     2     2    21    1
     3    21    22    1
     4    22    24    1
     5    24    25    2
     6    25    26    1
     7    26    27    2
     8    27    28    1
     9    28    29    1
    10    29    30    2
    11    30    33    1
    12    33    34    1
    13    33    35    1
    14    33    36    1
    15    30    31    1
    16    31    32    2
    17     2     3   am
    18     3     5    1
    19     5     6    1
    20     6     7    1
    21     9     7    1
    22     9    10    1
    23    10    11    1
    24    11    12    1
    25    12    15    1
    26    15    16   ar
    27    16    17   ar
    28    17    18   ar
    29    18    19   ar
    30    19    20   ar
    31    12    13    1
    32    13    14    1
    33     7     8    1
    34    32    24    1
    35     8     5    1
    36    32    27    1
    37    14     9    1
    38    20    15   ar
    39    22    23    1
    40     3     4    1
@<TRIPOS>MOLECULE
*****
 36 40 0 0 0
SMALL
GASTEIGER

@<TRIPOS>ATOM
      1 O         137.9156  140.0272  158.3596 O.2     1  UNL1       -0.2706
      2 C         138.8615  141.1885  158.4412 C.2     1  UNL1        0.2701
      3 N         140.2982  141.0149  158.0464 N.am    1  UNL1       -0.2999
      4 H         140.9190  141.7771  158.1000 H       1  UNL1        0.1496
      5 C         140.7889  139.6799  157.5700 C.3     1  UNL1        0.1035
      6 C         141.9567  139.2081  156.7555 C.3     1  UNL1        0.0933
      7 N         141.4829  137.7919  156.8963 N.3     1  UNL1       -0.2711
      8 C         140.3150  138.2636  157.7109 C.3     1  UNL1        0.0933
      9 C         141.9736  136.4569  156.4199 C.3     1  UNL1        0.0576
     10 C         141.3596  135.8209  155.2081 C.3     1  UNL1        0.0163
     11 C         141.8504  134.4859  154.7317 C.3     1  UNL1        0.0057
     12 C         142.9551  133.7869  155.4671 C.3     1  UNL1        0.0224
     13 C         143.5691  134.4229  156.6790 C.3     1  UNL1        0.0057
     14 C         143.0783  135.7578  157.1554 C.3     1  UNL1        0.0163
     15 C         143.4459  132.4519  154.9908 C.ar    1  UNL1       -0.0225
     16 C         142.9923  131.9153  153.6655 C.ar    1  UNL1       -0.0043
     17 C         143.4831  130.5803  153.1891 C.ar    1  UNL1       -0.0003
     18 C         144.4275  129.7819  154.0380 C.ar    1  UNL1       -0.0000
     19 C         144.8811  130.3185  155.3633 C.ar    1  UNL1       -0.0003
     20 C         144.3903  131.6535  155.8397 C.ar    1  UNL1       -0.0043
     21 C         138.3708  142.5235  158.9176 C.3     1  UNL1        0.2850
     22 N         139.2608  143.7273  158.8227 N.pl3   1  UNL1       -0.2091
     23 H         139.0830  144.4188  158.1448 H       1  UNL1        0.2928
     24 C         140.4217  143.8775  159.7606 C.2     1  UNL1        0.3493
     25 N         141.8722  143.8534  159.3792 N.2     1  UNL1        0.0798
     26 N         142.6828  144.0392  160.6276 N.2     1  UNL1       -0.0381
     27 C         141.7334  144.1779  161.7805 C.2     1  UNL1        0.1169
     28 C         141.9608  144.3824  163.2490 C.3     1  UNL1        0.0759
     29 C         140.7907  144.4869  164.1816 C.2     1  UNL1       -0.0158
     30 C         139.3932  144.3870  163.6458 C.2     1  UNL1        0.0678
     31 C         139.1658  144.1825  162.1774 C.2     1  UNL1        0.0123
     32 C         140.3359  144.0780  161.2447 C.2     1  UNL1        0.1019
     33 C         138.2231  144.4916  164.5786 C.3     1  UNL1        0.4183
     34 F         137.0530  144.5961  165.5113 F       1  UNL1       -0.1659
     35 F         139.0394  145.3404  165.5076 F       1  UNL1       -0.1659
     36 F         137.4067  143.6428  163.6496 F       1  UNL1       -0.1659
@<TRIPOS>BOND
     1     1     2    2
     2     2    21    1
     3    21    22    1
     4    22    24    1
     5    24    25    2
     6    25    26    1
     7    26    27    2
     8    27    28    1
     9    28    29    1
    10    29    30    2
    11    30    33    1
    12    33    34    1
    13    33    35    1
    14    33    36    1
    15    30    31    1
    16    31    32    2
    17     2     3   am
    18     3     5    1
    19     5     6    1
    20     6     7    1
    21     9     7    1
    22     9    10    1
    23    10    11    1
    24    11    12    1
    25    12    15    1
    26    15    16   ar
    27    16    17   ar
    28    17    18   ar
    29    18    19   ar
    30    19    20   ar
    31    12    13    1
    32    13    14    1
    33     7     8    1
    34    32    24    1
    35     8     5    1
    36    32    27    1
    37    14     9    1
    38    20    15   ar
    39    22    23    1
    40     3     4    1
@<TRIPOS>MOLECULE
*****
 36 40 0 0 0
SMALL
GASTEIGER

@<TRIPOS>ATOM
      1 O         142.1592  144.0763  160.3292 O.2     1  UNL1       -0.2706
      2 C         140.7495  144.5630  160.1685 C.2     1  UNL1        0.2701
      3 N         139.7369  143.7091  159.4647 N.am    1  UNL1       -0.2999
      4 H         138.8117  144.0285  159.3592 H       1  UNL1        0.1496
      5 C         140.1340  142.3685  158.9215 C.3     1  UNL1        0.1035
      6 C         140.1558  140.9693  159.4616 C.3     1  UNL1        0.0933
      7 N         140.6957  140.4726  158.1533 N.3     1  UNL1       -0.2711
      8 C         140.6739  141.8717  157.6131 C.3     1  UNL1        0.0933
      9 C         141.0929  139.1319  157.6102 C.3     1  UNL1        0.0576
     10 C         142.4653  138.5901  157.8799 C.3     1  UNL1        0.0163
     11 C         142.8624  137.2494  157.3367 C.3     1  UNL1        0.0057
     12 C         141.8871  136.4507  156.5239 C.3     1  UNL1        0.0224
     13 C         140.5146  136.9926  156.2542 C.3     1  UNL1        0.0057
     14 C         140.1176  138.3332  156.7973 C.3     1  UNL1        0.0163
     15 C         142.2842  135.1101  155.9807 C.ar    1  UNL1       -0.0225
     16 C         143.5325  134.4406  156.4744 C.ar    1  UNL1       -0.0043
     17 C         143.9296  133.1000  155.9312 C.ar    1  UNL1       -0.0003
     18 C         143.0784  132.4288  154.8944 C.ar    1  UNL1       -0.0000
     19 C         141.8302  133.0982  154.4007 C.ar    1  UNL1       -0.0003
     20 C         141.4330  134.4389  154.9439 C.ar    1  UNL1       -0.0043
     21 C         140.3524  145.9036  160.7117 C.3     1  UNL1        0.2850
     22 N         139.3328  145.9966  161.8081 N.pl3   1  UNL1       -0.2091
     23 H         138.8757  146.8506  161.9841 H       1  UNL1        0.2928
     24 C         139.0098  144.7883  162.6363 C.2     1  UNL1        0.3493
     25 N         137.6806  144.0968  162.7059 N.2     1  UNL1        0.0798
     26 N         137.8086  142.9406  163.6529 N.2     1  UNL1       -0.0381
     27 C         139.2170  142.9176  164.1686 C.2     1  UNL1        0.1169
     28 C         139.9194  142.0043  165.1290 C.3     1  UNL1        0.0759
     29 C         141.3641  142.2330  165.4612 C.2     1  UNL1       -0.0158
     30 C         142.1065  143.3750  164.8329 C.2     1  UNL1        0.0678
     31 C         141.4042  144.2883  163.8724 C.2     1  UNL1        0.0123
     32 C         139.9594  144.0596  163.5402 C.2     1  UNL1        0.1019
     33 C         143.5513  143.6036  165.1652 C.3     1  UNL1        0.4183
     34 F         144.9961  143.8323  165.4974 F       1  UNL1       -0.1659
     35 F         143.5216  144.8964  164.4051 F       1  UNL1       -0.1659
     36 F         143.5811  142.3109  165.9253 F       1  UNL1       -0.1659
@<TRIPOS>BOND
     1     1     2    2
     2     2    21    1
     3    21    22    1
     4    22    24    1
     5    24    25    2
     6    25    26    1
     7    26    27    2
     8    27    28    1
     9    28    29    1
    10    29    30    2
    11    30    33    1
    12    33    34    1
    13    33    35    1
    14    33    36    1
    15    30    31    1
    16    31    32    2
    17     2     3   am
    18     3     5    1
    19     5     6    1
    20     6     7    1
    21     9     7    1
    22     9    10    1
    23    10    11    1
    24    11    12    1
    25    12    15    1
    26    15    16   ar
    27    16    17   ar
    28    17    18   ar
    29    18    19   ar
    30    19    20   ar
    31    12    13    1
    32    13    14    1
    33     7     8    1
    34    32    24    1
    35     8     5    1
    36    32    27    1
    37    14     9    1
    38    20    15   ar
    39    22    23    1
    40     3     4    1
