@<TRIPOS>MOLECULE
*****
 40 44 0 0 0
SMALL
GASTEIGER

@<TRIPOS>ATOM
      1 C         138.5665  140.3730  162.2918 C.ar    1  UNL1       -0.0061
      2 C         138.1849  141.3709  163.3447 C.ar    1  UNL1       -0.0028
      3 C         138.0896  140.9468  164.7804 C.ar    1  UNL1        0.0030
      4 C         138.3758  139.5251  165.1631 C.ar    1  UNL1        0.0420
      5 C         138.7574  138.5272  164.1102 C.ar    1  UNL1        0.0030
      6 C         138.8527  138.9512  162.6745 C.ar    1  UNL1       -0.0028
      7 C         138.2805  139.1011  166.5988 C.2     1  UNL1        0.2297
      8 O         137.1749  138.1879  167.0394 O.2     1  UNL1       -0.2833
      9 C         139.2906  139.5903  167.5939 C.ar    1  UNL1        0.1867
     10 N         139.0374  139.8594  169.0477 N.ar    1  UNL1       -0.2282
     11 C         140.3216  140.3316  169.6623 C.ar    1  UNL1        0.0730
     12 C         140.5235  140.7140  171.0986 C.3     1  UNL1        0.0534
     13 C         141.3686  140.3544  168.5884 C.ar    1  UNL1        0.0567
     14 C         142.8012  140.7635  168.7622 C.3     1  UNL1        0.0517
     15 N         140.7314  139.8962  167.3100 N.ar    1  UNL1       -0.2917
     16 C         141.4150  139.7667  165.9811 C.ar    1  UNL1        0.0653
     17 C         141.9267  138.4314  165.5279 C.ar    1  UNL1        0.0199
     18 C         142.6103  138.3020  164.1990 C.ar    1  UNL1        0.0311
     19 C         142.7822  139.5077  163.3234 C.ar    1  UNL1        0.1402
     20 F         143.4658  139.3782  161.9945 F       1  UNL1       -0.2042
     21 C         142.2706  140.8429  163.7766 C.ar    1  UNL1        0.0311
     22 C         141.5870  140.9723  165.1055 C.ar    1  UNL1        0.0199
     23 C         138.6618  140.7970  160.8561 C.3     1  UNL1        0.0991
     24 C         141.5398  138.7262  158.0850 C.3     1  UNL1        0.0251
     25 C         142.0335  139.7886  159.0218 C.3     1  UNL1        0.0217
     26 C         141.0742  140.4789  159.9455 C.3     1  UNL1        0.0727
     27 N         139.6211  140.1068  159.9325 N.3     1  UNL1       -0.2689
     28 C         139.1274  139.0443  158.9957 C.3     1  UNL1        0.0727
     29 C         140.0868  138.3540  158.0720 C.3     1  UNL1        0.0217
     30 C         143.7099  135.8738  156.3808 C.ar    1  UNL1        0.0500
     31 C         144.4177  136.6553  155.3140 C.ar    1  UNL1        0.0147
     32 C         144.1662  138.1272  155.1708 C.ar    1  UNL1        0.0009
     33 C         143.2070  138.8175  156.0945 C.ar    1  UNL1       -0.0042
     34 C         142.4992  138.0359  157.1613 C.ar    1  UNL1       -0.0212
     35 C         142.7506  136.5641  157.3045 C.ar    1  UNL1        0.0104
     36 C         143.1399  131.9471  156.3033 C.3     1  UNL1        0.0949
     37 C         142.8885  133.4189  156.1602 C.2     1  UNL1        0.2266
     38 O         141.5640  133.9077  155.6532 O.2     1  UNL1       -0.2748
     39 N         143.9614  134.4020  156.5239 N.am    1  UNL1       -0.2839
     40 H         144.8307  134.0812  156.8567 H       1  UNL1        0.1549
@<TRIPOS>BOND
     1    36    37    1
     2    37    38    2
     3    37    39   am
     4    39    30    1
     5    30    31   ar
     6    31    32   ar
     7    32    33   ar
     8    33    34   ar
     9    34    24    1
    10    24    25    1
    11    25    26    1
    12    26    27    1
    13    27    23    1
    14    23     1    1
    15     1     2   ar
    16     2     3   ar
    17     3     4   ar
    18     4     7    1
    19     7     8    2
    20     7     9    1
    21     9    10   ar
    22    10    11   ar
    23    11    12    1
    24    11    13   ar
    25    13    14    1
    26    13    15   ar
    27    15    16    1
    28    16    17   ar
    29    17    18   ar
    30    18    19   ar
    31    19    20    1
    32    19    21   ar
    33    21    22   ar
    34     4     5   ar
    35     5     6   ar
    36    27    28    1
    37    28    29    1
    38    34    35   ar
    39    35    30   ar
    40    29    24    1
    41     6     1   ar
    42    15     9   ar
    43    22    16   ar
    44    39    40    1
@<TRIPOS>MOLECULE
*****
 40 44 0 0 0
SMALL
GASTEIGER

@<TRIPOS>ATOM
      1 C         143.8604  141.8420  162.1050 C.ar    1  UNL1       -0.0061
      2 C         142.5977  141.0543  161.9178 C.ar    1  UNL1       -0.0028
      3 C         142.1057  140.1546  163.0126 C.ar    1  UNL1        0.0030
      4 C         142.8765  140.0426  164.2945 C.ar    1  UNL1        0.0420
      5 C         144.1392  140.8303  164.4817 C.ar    1  UNL1        0.0030
      6 C         144.6312  141.7300  163.3870 C.ar    1  UNL1       -0.0028
      7 C         142.3845  139.1429  165.3892 C.2     1  UNL1        0.2297
      8 O         142.0738  137.7050  165.0956 O.2     1  UNL1       -0.2833
      9 C         142.2031  139.6810  166.7776 C.ar    1  UNL1        0.1867
     10 N         142.9183  139.2062  168.0076 N.ar    1  UNL1       -0.2282
     11 C         142.4319  140.0201  169.1699 C.ar    1  UNL1        0.0730
     12 C         142.8822  139.8807  170.5939 C.3     1  UNL1        0.0534
     13 C         141.4160  140.9979  168.6582 C.ar    1  UNL1        0.0567
     14 C         140.6721  142.0080  169.4806 C.3     1  UNL1        0.0517
     15 N         141.2746  140.7884  167.1797 N.ar    1  UNL1       -0.2917
     16 C         140.3644  141.5521  166.2640 C.ar    1  UNL1        0.0653
     17 C         140.6771  142.9766  165.9128 C.ar    1  UNL1        0.0199
     18 C         139.7670  143.7403  164.9972 C.ar    1  UNL1        0.0311
     19 C         138.5443  143.0796  164.4327 C.ar    1  UNL1        0.1402
     20 F         137.6342  143.8433  163.5170 F       1  UNL1       -0.2042
     21 C         138.2317  141.6552  164.7839 C.ar    1  UNL1        0.0311
     22 C         139.1418  140.8915  165.6995 C.ar    1  UNL1        0.0199
     23 C         144.3524  142.7417  161.0102 C.3     1  UNL1        0.0991
     24 C         141.4380  144.5179  158.0774 C.3     1  UNL1        0.0251
     25 C         141.2895  144.7957  159.5440 C.3     1  UNL1        0.0217
     26 C         142.2610  144.2036  160.5216 C.3     1  UNL1        0.0727
     27 N         143.3809  143.3338  160.0327 N.3     1  UNL1       -0.2689
     28 C         143.5294  143.0560  158.5661 C.3     1  UNL1        0.0727
     29 C         142.5579  143.6480  157.5885 C.3     1  UNL1        0.0217
     30 C         139.0437  147.1237  156.2810 C.ar    1  UNL1        0.0500
     31 C         138.5237  146.2942  155.1446 C.ar    1  UNL1        0.0147
     32 C         138.9751  144.8725  154.9858 C.ar    1  UNL1        0.0009
     33 C         139.9465  144.2804  155.9634 C.ar    1  UNL1       -0.0042
     34 C         140.4665  145.1100  157.0998 C.ar    1  UNL1       -0.0212
     35 C         140.0151  146.5316  157.2586 C.ar    1  UNL1        0.0104
     36 C         138.4906  150.9859  155.5548 C.3     1  UNL1        0.0949
     37 C         138.9420  149.5643  155.3960 C.2     1  UNL1        0.2266
     38 O         139.7431  149.1616  154.1934 O.2     1  UNL1       -0.2748
     39 N         138.5923  148.5453  156.4398 N.am    1  UNL1       -0.2839
     40 H         138.0665  148.8096  157.2290 H       1  UNL1        0.1549
@<TRIPOS>BOND
     1    36    37    1
     2    37    38    2
     3    37    39   am
     4    39    30    1
     5    30    31   ar
     6    31    32   ar
     7    32    33   ar
     8    33    34   ar
     9    34    24    1
    10    24    25    1
    11    25    26    1
    12    26    27    1
    13    27    23    1
    14    23     1    1
    15     1     2   ar
    16     2     3   ar
    17     3     4   ar
    18     4     7    1
    19     7     8    2
    20     7     9    1
    21     9    10   ar
    22    10    11   ar
    23    11    12    1
    24    11    13   ar
    25    13    14    1
    26    13    15   ar
    27    15    16    1
    28    16    17   ar
    29    17    18   ar
    30    18    19   ar
    31    19    20    1
    32    19    21   ar
    33    21    22   ar
    34     4     5   ar
    35     5     6   ar
    36    27    28    1
    37    28    29    1
    38    34    35   ar
    39    35    30   ar
    40    29    24    1
    41     6     1   ar
    42    15     9   ar
    43    22    16   ar
    44    39    40    1
@<TRIPOS>MOLECULE
*****
 40 44 0 0 0
SMALL
GASTEIGER

@<TRIPOS>ATOM
      1 C         143.0984  141.7471  162.5277 C.ar    1  UNL1       -0.0061
      2 C         141.6154  141.5933  162.3631 C.ar    1  UNL1       -0.0028
      3 C         140.6912  142.0039  163.4709 C.ar    1  UNL1        0.0030
      4 C         141.2500  142.5682  164.7434 C.ar    1  UNL1        0.0420
      5 C         142.7330  142.7220  164.9081 C.ar    1  UNL1        0.0030
      6 C         143.6572  142.3115  163.8003 C.ar    1  UNL1       -0.0028
      7 C         140.3258  142.9787  165.8512 C.2     1  UNL1        0.2297
      8 O         139.2271  143.9647  165.5848 O.2     1  UNL1       -0.2833
      9 C         140.5002  142.4034  167.2255 C.ar    1  UNL1        0.1867
     10 N         140.4562  143.1696  168.5143 N.ar    1  UNL1       -0.2282
     11 C         140.6780  142.2006  169.6375 C.ar    1  UNL1        0.0730
     12 C         140.7126  142.5375  171.0987 C.3     1  UNL1        0.0534
     13 C         140.8593  140.8354  169.0430 C.ar    1  UNL1        0.0567
     14 C         141.1069  139.5675  169.8053 C.3     1  UNL1        0.0517
     15 N         140.7494  140.9607  167.5522 N.ar    1  UNL1       -0.2917
     16 C         140.8679  139.8401  166.5621 C.ar    1  UNL1        0.0653
     17 C         139.6332  139.2397  165.9578 C.ar    1  UNL1        0.0199
     18 C         139.7516  138.1191  164.9677 C.ar    1  UNL1        0.0311
     19 C         141.1046  137.5990  164.5820 C.ar    1  UNL1        0.1402
     20 F         141.2231  136.4784  163.5919 F       1  UNL1       -0.2042
     21 C         142.3392  138.1994  165.1863 C.ar    1  UNL1        0.0311
     22 C         142.2208  139.3200  166.1764 C.ar    1  UNL1        0.0199
     23 C         144.0226  141.3366  161.4199 C.3     1  UNL1        0.0991
     24 C         142.6528  138.3629  158.3328 C.3     1  UNL1        0.0251
     25 C         142.9931  137.9019  159.7190 C.3     1  UNL1        0.0217
     26 C         143.4497  138.8932  160.7481 C.3     1  UNL1        0.0727
     27 N         143.5660  140.3454  160.3909 N.3     1  UNL1       -0.2689
     28 C         143.2257  140.8063  159.0046 C.3     1  UNL1        0.0727
     29 C         142.7691  139.8151  157.9756 C.3     1  UNL1        0.0217
     30 C         142.6550  135.2740  155.8410 C.ar    1  UNL1        0.0500
     31 C         141.2831  135.3892  155.2456 C.ar    1  UNL1        0.0147
     32 C         140.3678  136.4956  155.6791 C.ar    1  UNL1        0.0009
     33 C         140.8243  137.4868  156.7082 C.ar    1  UNL1       -0.0042
     34 C         142.1962  137.3716  157.3037 C.ar    1  UNL1       -0.0212
     35 C         143.1115  136.2652  156.8701 C.ar    1  UNL1        0.0104
     36 C         144.4744  131.7497  155.7019 C.3     1  UNL1        0.0949
     37 C         143.5591  132.8562  156.1355 C.2     1  UNL1        0.2266
     38 O         142.6325  132.6512  157.2972 O.2     1  UNL1       -0.2748
     39 N         143.5703  134.1676  155.4074 N.am    1  UNL1       -0.2839
     40 H         144.1785  134.3021  154.6450 H       1  UNL1        0.1549
@<TRIPOS>BOND
     1    36    37    1
     2    37    38    2
     3    37    39   am
     4    39    30    1
     5    30    31   ar
     6    31    32   ar
     7    32    33   ar
     8    33    34   ar
     9    34    24    1
    10    24    25    1
    11    25    26    1
    12    26    27    1
    13    27    23    1
    14    23     1    1
    15     1     2   ar
    16     2     3   ar
    17     3     4   ar
    18     4     7    1
    19     7     8    2
    20     7     9    1
    21     9    10   ar
    22    10    11   ar
    23    11    12    1
    24    11    13   ar
    25    13    14    1
    26    13    15   ar
    27    15    16    1
    28    16    17   ar
    29    17    18   ar
    30    18    19   ar
    31    19    20    1
    32    19    21   ar
    33    21    22   ar
    34     4     5   ar
    35     5     6   ar
    36    27    28    1
    37    28    29    1
    38    34    35   ar
    39    35    30   ar
    40    29    24    1
    41     6     1   ar
    42    15     9   ar
    43    22    16   ar
    44    39    40    1
@<TRIPOS>MOLECULE
*****
 40 44 0 0 0
SMALL
GASTEIGER

@<TRIPOS>ATOM
      1 C         140.4696  141.0064  161.9386 C.ar    1  UNL1       -0.0061
      2 C         141.2689  140.1360  162.8625 C.ar    1  UNL1       -0.0028
      3 C         140.7249  139.7783  164.2139 C.ar    1  UNL1        0.0030
      4 C         139.3817  140.2911  164.6414 C.ar    1  UNL1        0.0420
      5 C         138.5824  141.1615  163.7175 C.ar    1  UNL1        0.0030
      6 C         139.1263  141.5192  162.3662 C.ar    1  UNL1       -0.0028
      7 C         138.8377  139.9334  165.9927 C.2     1  UNL1        0.2297
      8 O         137.6227  139.0610  166.1053 O.2     1  UNL1       -0.2833
      9 C         139.5088  140.4481  167.2316 C.ar    1  UNL1        0.1867
     10 N         139.5419  139.7633  168.5657 N.ar    1  UNL1       -0.2282
     11 C         140.3182  140.6299  169.5125 C.ar    1  UNL1        0.0730
     12 C         140.5985  140.3290  170.9550 C.3     1  UNL1        0.0534
     13 C         140.7649  141.8503  168.7635 C.ar    1  UNL1        0.0567
     14 C         141.5704  142.9840  169.3255 C.3     1  UNL1        0.0517
     15 N         140.2648  141.7380  167.3538 N.ar    1  UNL1       -0.2917
     16 C         140.4823  142.7397  166.2586 C.ar    1  UNL1        0.0653
     17 C         139.3921  143.7047  165.8976 C.ar    1  UNL1        0.0199
     18 C         139.6096  144.7064  164.8024 C.ar    1  UNL1        0.0311
     19 C         140.9172  144.7430  164.0683 C.ar    1  UNL1        0.1402
     20 F         141.1347  145.7446  162.9732 F       1  UNL1       -0.2042
     21 C         142.0073  143.7780  164.4294 C.ar    1  UNL1        0.0311
     22 C         141.7898  142.7763  165.5245 C.ar    1  UNL1        0.0199
     23 C         141.0135  141.3641  160.5873 C.3     1  UNL1        0.0991
     24 C         141.7552  138.1414  157.5355 C.3     1  UNL1        0.0251
     25 C         140.4662  138.1659  158.3021 C.3     1  UNL1        0.0217
     26 C         140.2189  139.2402  159.3194 C.3     1  UNL1        0.0727
     27 N         141.2607  140.2899  159.5700 N.3     1  UNL1       -0.2689
     28 C         142.5498  140.2652  158.8034 C.3     1  UNL1        0.0727
     29 C         142.7970  139.1910  157.7861 C.3     1  UNL1        0.0217
     30 C         143.3083  134.9584  155.7447 C.ar    1  UNL1        0.0500
     31 C         142.4970  134.9186  154.4836 C.ar    1  UNL1        0.0147
     32 C         141.4385  135.9531  154.2399 C.ar    1  UNL1        0.0009
     33 C         141.1912  137.0273  155.2571 C.ar    1  UNL1       -0.0042
     34 C         142.0025  137.0671  156.5181 C.ar    1  UNL1       -0.0212
     35 C         143.0610  136.0326  156.7619 C.ar    1  UNL1        0.0104
     36 C         145.0711  131.5992  156.9101 C.3     1  UNL1        0.0949
     37 C         144.0125  132.6336  156.6663 C.2     1  UNL1        0.2266
     38 O         142.5996  132.3777  157.1004 O.2     1  UNL1       -0.2748
     39 N         144.3668  133.9240  155.9885 N.am    1  UNL1       -0.2839
     40 H         145.2941  134.0919  155.7036 H       1  UNL1        0.1549
@<TRIPOS>BOND
     1    36    37    1
     2    37    38    2
     3    37    39   am
     4    39    30    1
     5    30    31   ar
     6    31    32   ar
     7    32    33   ar
     8    33    34   ar
     9    34    24    1
    10    24    25    1
    11    25    26    1
    12    26    27    1
    13    27    23    1
    14    23     1    1
    15     1     2   ar
    16     2     3   ar
    17     3     4   ar
    18     4     7    1
    19     7     8    2
    20     7     9    1
    21     9    10   ar
    22    10    11   ar
    23    11    12    1
    24    11    13   ar
    25    13    14    1
    26    13    15   ar
    27    15    16    1
    28    16    17   ar
    29    17    18   ar
    30    18    19   ar
    31    19    20    1
    32    19    21   ar
    33    21    22   ar
    34     4     5   ar
    35     5     6   ar
    36    27    28    1
    37    28    29    1
    38    34    35   ar
    39    35    30   ar
    40    29    24    1
    41     6     1   ar
    42    15     9   ar
    43    22    16   ar
    44    39    40    1
@<TRIPOS>MOLECULE
*****
 40 44 0 0 0
SMALL
GASTEIGER

@<TRIPOS>ATOM
      1 C         138.4714  139.1447  162.7217 C.ar    1  UNL1       -0.0061
      2 C         138.1508  140.4554  163.3768 C.ar    1  UNL1       -0.0028
      3 C         138.2641  140.5972  164.8658 C.ar    1  UNL1        0.0030
      4 C         138.6980  139.4282  165.6996 C.ar    1  UNL1        0.0420
      5 C         139.0186  138.1175  165.0445 C.ar    1  UNL1        0.0030
      6 C         138.9053  137.9757  163.5555 C.ar    1  UNL1       -0.0028
      7 C         138.8113  139.5700  167.1886 C.2     1  UNL1        0.2297
      8 O         137.9293  138.7565  168.0888 O.2     1  UNL1       -0.2833
      9 C         139.8066  140.5254  167.7774 C.ar    1  UNL1        0.1867
     10 N         139.6010  141.3707  168.9994 N.ar    1  UNL1       -0.2282
     11 C         140.8495  142.1709  169.2249 C.ar    1  UNL1        0.0730
     12 C         141.0804  143.1499  170.3376 C.3     1  UNL1        0.0534
     13 C         141.8267  141.8202  168.1423 C.ar    1  UNL1        0.0567
     14 C         143.2063  142.3869  167.9823 C.3     1  UNL1        0.0517
     15 N         141.1822  140.8032  167.2476 N.ar    1  UNL1       -0.2917
     16 C         141.8040  140.1744  166.0360 C.ar    1  UNL1        0.0653
     17 C         142.3772  138.7907  166.1198 C.ar    1  UNL1        0.0199
     18 C         142.9990  138.1619  164.9082 C.ar    1  UNL1        0.0311
     19 C         143.0477  138.9168  163.6129 C.ar    1  UNL1        0.1402
     20 F         143.6695  138.2881  162.4013 F       1  UNL1       -0.2042
     21 C         142.4746  140.3005  163.5292 C.ar    1  UNL1        0.0311
     22 C         141.8527  140.9292  164.7408 C.ar    1  UNL1        0.0199
     23 C         138.3581  139.0029  161.2327 C.3     1  UNL1        0.0991
     24 C         140.1685  142.1140  158.5321 C.3     1  UNL1        0.0251
     25 C         141.0398  141.3463  159.4815 C.3     1  UNL1        0.0217
     26 C         140.4364  140.3092  160.3817 C.3     1  UNL1        0.0727
     27 N         138.9616  140.0399  160.3325 N.3     1  UNL1       -0.2689
     28 C         138.0902  140.8076  159.3831 C.3     1  UNL1        0.0727
     29 C         138.6937  141.8447  158.4829 C.3     1  UNL1        0.0217
     30 C         140.8604  145.5967  156.7595 C.ar    1  UNL1        0.0500
     31 C         141.9788  145.2252  155.8315 C.ar    1  UNL1        0.0147
     32 C         142.4937  143.8166  155.8037 C.ar    1  UNL1        0.0009
     33 C         141.8903  142.7795  156.7039 C.ar    1  UNL1       -0.0042
     34 C         140.7720  143.1511  157.6318 C.ar    1  UNL1       -0.0212
     35 C         140.2570  144.5596  157.6596 C.ar    1  UNL1        0.0104
     36 C         138.6360  148.7921  155.9905 C.3     1  UNL1        0.0949
     37 C         139.1510  147.3835  155.9627 C.2     1  UNL1        0.2266
     38 O         138.4713  146.3532  155.1102 O.2     1  UNL1       -0.2748
     39 N         140.3455  147.0052  156.7873 N.am    1  UNL1       -0.2839
     40 H         140.7915  147.6815  157.3467 H       1  UNL1        0.1549
@<TRIPOS>BOND
     1    36    37    1
     2    37    38    2
     3    37    39   am
     4    39    30    1
     5    30    31   ar
     6    31    32   ar
     7    32    33   ar
     8    33    34   ar
     9    34    24    1
    10    24    25    1
    11    25    26    1
    12    26    27    1
    13    27    23    1
    14    23     1    1
    15     1     2   ar
    16     2     3   ar
    17     3     4   ar
    18     4     7    1
    19     7     8    2
    20     7     9    1
    21     9    10   ar
    22    10    11   ar
    23    11    12    1
    24    11    13   ar
    25    13    14    1
    26    13    15   ar
    27    15    16    1
    28    16    17   ar
    29    17    18   ar
    30    18    19   ar
    31    19    20    1
    32    19    21   ar
    33    21    22   ar
    34     4     5   ar
    35     5     6   ar
    36    27    28    1
    37    28    29    1
    38    34    35   ar
    39    35    30   ar
    40    29    24    1
    41     6     1   ar
    42    15     9   ar
    43    22    16   ar
    44    39    40    1
@<TRIPOS>MOLECULE
*****
 40 44 0 0 0
SMALL
GASTEIGER

@<TRIPOS>ATOM
      1 C         143.8828  142.2063  158.2594 C.ar    1  UNL1       -0.0061
      2 C         144.8740  142.0452  159.3737 C.ar    1  UNL1       -0.0028
      3 C         144.6075  142.6706  160.7108 C.ar    1  UNL1        0.0030
      4 C         143.3498  143.4571  160.9336 C.ar    1  UNL1        0.0420
      5 C         142.3586  143.6182  159.8193 C.ar    1  UNL1        0.0030
      6 C         142.6251  142.9929  158.4822 C.ar    1  UNL1       -0.0028
      7 C         143.0833  144.0825  162.2707 C.2     1  UNL1        0.2297
      8 O         144.0234  145.1166  162.8158 O.2     1  UNL1       -0.2833
      9 C         141.8768  143.6738  163.0628 C.ar    1  UNL1        0.1867
     10 N         140.8949  144.6012  163.7152 N.ar    1  UNL1       -0.2282
     11 C         139.8516  143.7666  164.3971 C.ar    1  UNL1        0.0730
     12 C         138.6774  144.2842  165.1737 C.3     1  UNL1        0.0534
     13 C         140.1888  142.3233  164.1661 C.ar    1  UNL1        0.0567
     14 C         139.4110  141.1444  164.6712 C.3     1  UNL1        0.0517
     15 N         141.4405  142.2659  163.3414 N.ar    1  UNL1       -0.2917
     16 C         142.1340  141.0196  162.8770 C.ar    1  UNL1        0.0653
     17 C         141.6655  140.3187  161.6363 C.ar    1  UNL1        0.0199
     18 C         142.3590  139.0723  161.1718 C.ar    1  UNL1        0.0311
     19 C         143.5209  138.5270  161.9480 C.ar    1  UNL1        0.1402
     20 F         144.2144  137.2806  161.4836 F       1  UNL1       -0.2042
     21 C         143.9894  139.2279  163.1887 C.ar    1  UNL1        0.0311
     22 C         143.2959  140.4742  163.6531 C.ar    1  UNL1        0.0199
     23 C         144.1493  141.5809  156.9223 C.3     1  UNL1        0.0991
     24 C         143.1097  137.2607  156.2118 C.3     1  UNL1        0.0251
     25 C         144.0341  137.9742  155.2705 C.3     1  UNL1        0.0217
     26 C         144.3807  139.4143  155.5073 C.3     1  UNL1        0.0727
     27 N         143.8028  140.1409  156.6855 N.3     1  UNL1       -0.2689
     28 C         142.8783  139.4273  157.6269 C.3     1  UNL1        0.0727
     29 C         142.5318  137.9872  157.3900 C.3     1  UNL1        0.0217
     30 C         142.8726  133.3303  156.7073 C.ar    1  UNL1        0.0500
     31 C         142.0700  132.9405  155.5015 C.ar    1  UNL1        0.0147
     32 C         141.6140  133.9907  154.5325 C.ar    1  UNL1        0.0009
     33 C         141.9606  135.4308  154.7692 C.ar    1  UNL1       -0.0042
     34 C         142.7631  135.8206  155.9750 C.ar    1  UNL1       -0.0212
     35 C         143.2191  134.7703  156.9441 C.ar    1  UNL1        0.0104
     36 C         144.9570  130.3569  158.3086 C.3     1  UNL1        0.0949
     37 C         144.5010  131.4071  157.3395 C.2     1  UNL1        0.2266
     38 O         145.2175  131.5845  156.0337 O.2     1  UNL1       -0.2748
     39 N         143.3286  132.2800  157.6763 N.am    1  UNL1       -0.2839
     40 H         142.8583  132.1636  158.5334 H       1  UNL1        0.1549
@<TRIPOS>BOND
     1    36    37    1
     2    37    38    2
     3    37    39   am
     4    39    30    1
     5    30    31   ar
     6    31    32   ar
     7    32    33   ar
     8    33    34   ar
     9    34    24    1
    10    24    25    1
    11    25    26    1
    12    26    27    1
    13    27    23    1
    14    23     1    1
    15     1     2   ar
    16     2     3   ar
    17     3     4   ar
    18     4     7    1
    19     7     8    2
    20     7     9    1
    21     9    10   ar
    22    10    11   ar
    23    11    12    1
    24    11    13   ar
    25    13    14    1
    26    13    15   ar
    27    15    16    1
    28    16    17   ar
    29    17    18   ar
    30    18    19   ar
    31    19    20    1
    32    19    21   ar
    33    21    22   ar
    34     4     5   ar
    35     5     6   ar
    36    27    28    1
    37    28    29    1
    38    34    35   ar
    39    35    30   ar
    40    29    24    1
    41     6     1   ar
    42    15     9   ar
    43    22    16   ar
    44    39    40    1
@<TRIPOS>MOLECULE
*****
 40 44 0 0 0
SMALL
GASTEIGER

@<TRIPOS>ATOM
      1 C         138.2370  140.5109  162.3617 C.ar    1  UNL1       -0.0061
      2 C         137.9753  141.4678  163.4868 C.ar    1  UNL1       -0.0028
      3 C         138.0136  140.9848  164.9064 C.ar    1  UNL1        0.0030
      4 C         138.3134  139.5449  165.2009 C.ar    1  UNL1        0.0420
      5 C         138.5751  138.5880  164.0758 C.ar    1  UNL1        0.0030
      6 C         138.5368  139.0710  162.6562 C.ar    1  UNL1       -0.0028
      7 C         138.3517  139.0619  166.6205 C.2     1  UNL1        0.2297
      8 O         137.3837  138.0132  167.0822 O.2     1  UNL1       -0.2833
      9 C         139.3579  139.6276  167.5783 C.ar    1  UNL1        0.1867
     10 N         139.1184  139.9410  169.0255 N.ar    1  UNL1       -0.2282
     11 C         140.3927  140.4863  169.5988 C.ar    1  UNL1        0.0730
     12 C         140.6031  140.9301  171.0161 C.3     1  UNL1        0.0534
     13 C         141.4199  140.5100  168.5059 C.ar    1  UNL1        0.0567
     14 C         142.8376  140.9816  168.6384 C.3     1  UNL1        0.0517
     15 N         140.7803  139.9793  167.2571 N.ar    1  UNL1       -0.2917
     16 C         141.4463  139.8270  165.9217 C.ar    1  UNL1        0.0653
     17 C         141.9202  138.4775  165.4696 C.ar    1  UNL1        0.0199
     18 C         142.5861  138.3252  164.1341 C.ar    1  UNL1        0.0311
     19 C         142.7781  139.5223  163.2509 C.ar    1  UNL1        0.1402
     20 F         143.4440  139.3700  161.9155 F       1  UNL1       -0.2042
     21 C         142.3042  140.8717  163.7030 C.ar    1  UNL1        0.0311
     22 C         141.6383  141.0240  165.0385 C.ar    1  UNL1        0.0199
     23 C         138.1987  140.9939  160.9421 C.3     1  UNL1        0.0991
     24 C         141.5353  139.9347  158.1146 C.3     1  UNL1        0.0251
     25 C         140.1366  139.4734  157.8305 C.3     1  UNL1        0.0217
     26 C         139.0244  139.8264  158.7730 C.3     1  UNL1        0.0727
     27 N         139.3109  140.6409  159.9996 N.3     1  UNL1       -0.2689
     28 C         140.7097  141.1022  160.2837 C.3     1  UNL1        0.0727
     29 C         141.8218  140.7491  159.3412 C.3     1  UNL1        0.0217
     30 C         144.9800  140.0975  156.1504 C.ar    1  UNL1        0.0500
     31 C         144.8720  138.8756  155.2871 C.ar    1  UNL1        0.0147
     32 C         143.6519  138.0068  155.3663 C.ar    1  UNL1        0.0009
     33 C         142.5396  138.3598  156.3087 C.ar    1  UNL1       -0.0042
     34 C         142.6476  139.5816  157.1720 C.ar    1  UNL1       -0.0212
     35 C         143.8678  140.4505  157.0929 C.ar    1  UNL1        0.0104
     36 C         147.5047  142.9172  154.9567 C.3     1  UNL1        0.0949
     37 C         146.2845  142.0483  155.0359 C.2     1  UNL1        0.2266
     38 O         145.1487  142.2616  154.0796 O.2     1  UNL1       -0.2748
     39 N         146.2002  140.9663  156.0713 N.am    1  UNL1       -0.2839
     40 H         146.9456  140.8264  156.6989 H       1  UNL1        0.1549
@<TRIPOS>BOND
     1    36    37    1
     2    37    38    2
     3    37    39   am
     4    39    30    1
     5    30    31   ar
     6    31    32   ar
     7    32    33   ar
     8    33    34   ar
     9    34    24    1
    10    24    25    1
    11    25    26    1
    12    26    27    1
    13    27    23    1
    14    23     1    1
    15     1     2   ar
    16     2     3   ar
    17     3     4   ar
    18     4     7    1
    19     7     8    2
    20     7     9    1
    21     9    10   ar
    22    10    11   ar
    23    11    12    1
    24    11    13   ar
    25    13    14    1
    26    13    15   ar
    27    15    16    1
    28    16    17   ar
    29    17    18   ar
    30    18    19   ar
    31    19    20    1
    32    19    21   ar
    33    21    22   ar
    34     4     5   ar
    35     5     6   ar
    36    27    28    1
    37    28    29    1
    38    34    35   ar
    39    35    30   ar
    40    29    24    1
    41     6     1   ar
    42    15     9   ar
    43    22    16   ar
    44    39    40    1
@<TRIPOS>MOLECULE
*****
 40 44 0 0 0
SMALL
GASTEIGER

@<TRIPOS>ATOM
      1 C         143.2371  143.0536  163.1460 C.ar    1  UNL1       -0.0061
      2 C         143.7079  143.3607  164.5367 C.ar    1  UNL1       -0.0028
      3 C         143.6557  142.3011  165.5973 C.ar    1  UNL1        0.0030
      4 C         143.1328  140.9345  165.2670 C.ar    1  UNL1        0.0420
      5 C         142.6620  140.6275  163.8763 C.ar    1  UNL1        0.0030
      6 C         142.7141  141.6870  162.8158 C.ar    1  UNL1       -0.0028
      7 C         143.0806  139.8750  166.3275 C.2     1  UNL1        0.2297
      8 O         143.7547  138.5541  166.1018 O.2     1  UNL1       -0.2833
      9 C         142.3545  140.1364  167.6137 C.ar    1  UNL1        0.1867
     10 N         142.9455  140.0632  168.9905 N.ar    1  UNL1       -0.2282
     11 C         141.8661  140.3984  169.9767 C.ar    1  UNL1        0.0730
     12 C         142.0181  140.4451  171.4682 C.3     1  UNL1        0.0534
     13 C         140.6080  140.6787  169.2095 C.ar    1  UNL1        0.0567
     14 C         139.2811  141.0549  169.7991 C.3     1  UNL1        0.0517
     15 N         140.9098  140.5168  167.7491 N.ar    1  UNL1       -0.2917
     16 C         139.9376  140.7027  166.6220 C.ar    1  UNL1        0.0653
     17 C         139.7784  142.0508  165.9836 C.ar    1  UNL1        0.0199
     18 C         138.8062  142.2366  164.8565 C.ar    1  UNL1        0.0311
     19 C         137.9934  141.0745  164.3678 C.ar    1  UNL1        0.1402
     20 F         137.0212  141.2604  163.2407 F       1  UNL1       -0.2042
     21 C         138.1527  139.7265  165.0061 C.ar    1  UNL1        0.0311
     22 C         139.1248  139.5407  166.1332 C.ar    1  UNL1        0.0199
     23 C         143.2892  144.1132  162.0855 C.3     1  UNL1        0.0991
     24 C         140.7166  143.7476  158.4115 C.3     1  UNL1        0.0251
     25 C         142.1023  143.1733  158.4170 C.3     1  UNL1        0.0217
     26 C         142.9599  143.2951  159.6417 C.3     1  UNL1        0.0727
     27 N         142.4317  143.9913  160.8609 N.3     1  UNL1       -0.2689
     28 C         141.0460  144.5656  160.8554 C.3     1  UNL1        0.0727
     29 C         140.1885  144.4438  159.6307 C.3     1  UNL1        0.0217
     30 C         137.6048  142.9688  156.0750 C.ar    1  UNL1        0.0500
     31 C         138.1439  143.3820  154.7377 C.ar    1  UNL1        0.0147
     32 C         139.5407  143.9172  154.6250 C.ar    1  UNL1        0.0009
     33 C         140.3983  144.0390  155.8495 C.ar    1  UNL1       -0.0042
     34 C         139.8591  143.6257  157.1868 C.ar    1  UNL1       -0.0212
     35 C         138.4623  143.0906  157.2996 C.ar    1  UNL1        0.0104
     36 C         134.5730  140.4176  156.2978 C.3     1  UNL1        0.0949
     37 C         135.9697  140.9527  156.1851 C.2     1  UNL1        0.2266
     38 O         137.1283  140.0068  156.0699 O.2     1  UNL1       -0.2748
     39 N         136.2080  142.4336  156.1877 N.am    1  UNL1       -0.2839
     40 H         135.4476  143.0544  156.2633 H       1  UNL1        0.1549
@<TRIPOS>BOND
     1    36    37    1
     2    37    38    2
     3    37    39   am
     4    39    30    1
     5    30    31   ar
     6    31    32   ar
     7    32    33   ar
     8    33    34   ar
     9    34    24    1
    10    24    25    1
    11    25    26    1
    12    26    27    1
    13    27    23    1
    14    23     1    1
    15     1     2   ar
    16     2     3   ar
    17     3     4   ar
    18     4     7    1
    19     7     8    2
    20     7     9    1
    21     9    10   ar
    22    10    11   ar
    23    11    12    1
    24    11    13   ar
    25    13    14    1
    26    13    15   ar
    27    15    16    1
    28    16    17   ar
    29    17    18   ar
    30    18    19   ar
    31    19    20    1
    32    19    21   ar
    33    21    22   ar
    34     4     5   ar
    35     5     6   ar
    36    27    28    1
    37    28    29    1
    38    34    35   ar
    39    35    30   ar
    40    29    24    1
    41     6     1   ar
    42    15     9   ar
    43    22    16   ar
    44    39    40    1
@<TRIPOS>MOLECULE
*****
 40 44 0 0 0
SMALL
GASTEIGER

@<TRIPOS>ATOM
      1 C         141.1808  141.3953  161.2211 C.ar    1  UNL1       -0.0061
      2 C         141.5235  142.7344  161.8036 C.ar    1  UNL1       -0.0028
      3 C         142.1751  142.8213  163.1520 C.ar    1  UNL1        0.0030
      4 C         142.4840  141.5690  163.9177 C.ar    1  UNL1        0.0420
      5 C         142.1413  140.2299  163.3353 C.ar    1  UNL1        0.0030
      6 C         141.4897  140.1430  161.9870 C.ar    1  UNL1       -0.0028
      7 C         143.1356  141.6559  165.2660 C.2     1  UNL1        0.2297
      8 O         144.4807  142.3044  165.4086 O.2     1  UNL1       -0.2833
      9 C         142.4421  141.0944  166.4717 C.ar    1  UNL1        0.1867
     10 N         143.0769  140.2620  167.5460 N.ar    1  UNL1       -0.2282
     11 C         142.0192  139.9198  168.5531 C.ar    1  UNL1        0.0730
     12 C         142.2155  139.1006  169.7941 C.3     1  UNL1        0.0534
     13 C         140.7307  140.5408  168.1013 C.ar    1  UNL1        0.0567
     14 C         139.4123  140.4515  168.8111 C.3     1  UNL1        0.0517
     15 N         140.9920  141.2667  166.8149 N.ar    1  UNL1       -0.2917
     16 C         139.9809  142.0308  166.0125 C.ar    1  UNL1        0.0653
     17 C         139.0036  141.2967  165.1429 C.ar    1  UNL1        0.0199
     18 C         137.9925  142.0608  164.3406 C.ar    1  UNL1        0.0311
     19 C         137.9585  143.5589  164.4079 C.ar    1  UNL1        0.1402
     20 F         136.9474  144.3229  163.6055 F       1  UNL1       -0.2042
     21 C         138.9357  144.2929  165.2775 C.ar    1  UNL1        0.0311
     22 C         139.9468  143.5288  166.0798 C.ar    1  UNL1        0.0199
     23 C         140.5292  141.3084  159.8729 C.3     1  UNL1        0.0991
     24 C         141.4228  137.8294  157.1622 C.3     1  UNL1        0.0251
     25 C         142.5179  138.7781  157.5506 C.3     1  UNL1        0.0217
     26 C         142.2200  139.9378  158.4542 C.3     1  UNL1        0.0727
     27 N         140.8271  140.1487  158.9693 N.3     1  UNL1       -0.2689
     28 C         139.7321  139.2000  158.5808 C.3     1  UNL1        0.0727
     29 C         140.0300  138.0404  157.6773 C.3     1  UNL1        0.0217
     30 C         143.1557  134.5847  155.6724 C.ar    1  UNL1        0.0500
     31 C         142.3164  134.3503  154.4515 C.ar    1  UNL1        0.0147
     32 C         141.1793  135.2757  154.1341 C.ar    1  UNL1        0.0009
     33 C         140.8814  136.4353  155.0377 C.ar    1  UNL1       -0.0042
     34 C         141.7207  136.6697  156.2586 C.ar    1  UNL1       -0.0212
     35 C         142.8578  135.7444  156.5760 C.ar    1  UNL1        0.0104
     36 C         145.1731  131.4585  157.0534 C.3     1  UNL1        0.0949
     37 C         144.0359  132.3838  156.7360 C.2     1  UNL1        0.2266
     38 O         142.6418  132.0335  157.1649 O.2     1  UNL1       -0.2748
     39 N         144.2928  133.6594  155.9898 N.am    1  UNL1       -0.2839
     40 H         145.2078  133.8893  155.7084 H       1  UNL1        0.1549
@<TRIPOS>BOND
     1    36    37    1
     2    37    38    2
     3    37    39   am
     4    39    30    1
     5    30    31   ar
     6    31    32   ar
     7    32    33   ar
     8    33    34   ar
     9    34    24    1
    10    24    25    1
    11    25    26    1
    12    26    27    1
    13    27    23    1
    14    23     1    1
    15     1     2   ar
    16     2     3   ar
    17     3     4   ar
    18     4     7    1
    19     7     8    2
    20     7     9    1
    21     9    10   ar
    22    10    11   ar
    23    11    12    1
    24    11    13   ar
    25    13    14    1
    26    13    15   ar
    27    15    16    1
    28    16    17   ar
    29    17    18   ar
    30    18    19   ar
    31    19    20    1
    32    19    21   ar
    33    21    22   ar
    34     4     5   ar
    35     5     6   ar
    36    27    28    1
    37    28    29    1
    38    34    35   ar
    39    35    30   ar
    40    29    24    1
    41     6     1   ar
    42    15     9   ar
    43    22    16   ar
    44    39    40    1
