@<TRIPOS>MOLECULE
*****
 27 29 0 0 0
SMALL
GASTEIGER

@<TRIPOS>ATOM
      1 C         140.9413  143.7515  163.0379 C.ar    1  UNL1        0.0288
      2 C         141.3627  142.3437  163.3385 C.ar    1  UNL1        0.0147
      3 C         142.6847  142.0807  163.9964 C.ar    1  UNL1        0.0482
      4 C         143.5855  143.2257  164.3539 C.ar    1  UNL1        0.0177
      5 C         143.1642  144.6336  164.0533 C.ar    1  UNL1        0.0376
      6 C         141.8421  144.8965  163.3952 C.ar    1  UNL1        0.1310
      7 O         141.4207  146.3044  163.0946 O.3     1  UNL1       -0.5058
      8 H         141.9834  147.0196  163.3179 H       1  UNL1        0.2922
      9 N         143.1061  140.6728  164.2971 N.pl3   1  UNL1       -0.3125
     10 H         143.9507  140.5029  164.7735 H       1  UNL1        0.1522
     11 C         142.2405  139.5239  163.8717 C.ar    1  UNL1        0.0513
     12 C         142.5950  138.7302  162.6493 C.ar    1  UNL1        0.0353
     13 C         141.7294  137.5813  162.2241 C.ar    1  UNL1        0.1001
     14 N         140.5094  137.2262  163.0212 N.ar    1  UNL1       -0.2437
     15 C         140.1549  138.0199  164.2435 C.ar    1  UNL1        0.0833
     16 C         138.9349  137.6648  165.0407 C.ar    1  UNL1        0.0305
     17 C         138.5804  138.4586  166.2630 C.ar    1  UNL1        0.0592
     18 CL        137.3603  138.1034  167.0602 Cl      1  UNL1       -0.0822
     19 C         139.4459  139.6075  166.6884 C.ar    1  UNL1        0.0115
     20 C         140.6660  139.9626  165.8913 C.ar    1  UNL1        0.0036
     21 C         141.0204  139.1688  164.6688 C.ar    1  UNL1        0.0312
     22 C         139.6192  144.0144  162.3798 C.3     1  UNL1        0.1022
     23 N         138.3594  143.4679  162.9831 N.3     1  UNL1       -0.2689
     24 C         137.6198  140.9994  163.3146 C.3     1  UNL1        0.0188
     25 C         137.7514  142.2096  162.4381 C.3     1  UNL1        0.0724
     26 C         137.7075  144.1795  164.1314 C.3     1  UNL1        0.0724
     27 C         138.5503  144.7836  165.2152 C.3     1  UNL1        0.0188
@<TRIPOS>BOND
     1    24    25    1
     2    25    23    1
     3    23    26    1
     4    26    27    1
     5    23    22    1
     6    22     1    1
     7     1     2   ar
     8     2     3   ar
     9     3     9    1
    10     9    11    1
    11    11    12   ar
    12    12    13   ar
    13    13    14   ar
    14    14    15   ar
    15    15    16   ar
    16    16    17   ar
    17    17    18    1
    18    17    19   ar
    19    19    20   ar
    20    20    21   ar
    21     3     4   ar
    22     4     5   ar
    23     5     6   ar
    24     6     7    1
    25     6     1   ar
    26    21    11   ar
    27    21    15   ar
    28     9    10    1
    29     7     8    1
@<TRIPOS>MOLECULE
*****
 27 29 0 0 0
SMALL
GASTEIGER

@<TRIPOS>ATOM
      1 C         142.4153  144.0098  163.9439 C.ar    1  UNL1        0.0288
      2 C         142.1742  142.7079  164.6487 C.ar    1  UNL1        0.0147
      3 C         143.2738  141.6921  164.7445 C.ar    1  UNL1        0.0482
      4 C         144.6144  141.9783  164.1354 C.ar    1  UNL1        0.0177
      5 C         144.8554  143.2803  163.4307 C.ar    1  UNL1        0.0376
      6 C         143.7558  144.2961  163.3349 C.ar    1  UNL1        0.1310
      7 O         143.9969  145.5980  162.6301 O.3     1  UNL1       -0.5058
      8 H         144.8343  145.7768  162.2497 H       1  UNL1        0.2922
      9 N         143.0327  140.3901  165.4493 N.pl3   1  UNL1       -0.3125
     10 H         143.4617  140.2136  166.3177 H       1  UNL1        0.1522
     11 C         142.1381  139.3569  164.8309 C.ar    1  UNL1        0.0513
     12 C         142.5584  138.6572  163.5725 C.ar    1  UNL1        0.0353
     13 C         141.6638  137.6241  162.9542 C.ar    1  UNL1        0.1001
     14 N         140.3489  137.2907  163.5943 N.ar    1  UNL1       -0.2437
     15 C         139.9286  137.9904  164.8528 C.ar    1  UNL1        0.0833
     16 C         138.6137  137.6570  165.4929 C.ar    1  UNL1        0.0305
     17 C         138.1933  138.3566  166.7514 C.ar    1  UNL1        0.0592
     18 CL        136.8784  138.0232  167.3915 Cl      1  UNL1       -0.0822
     19 C         139.0880  139.3898  167.3697 C.ar    1  UNL1        0.0115
     20 C         140.4029  139.7232  166.7296 C.ar    1  UNL1        0.0036
     21 C         140.8232  139.0235  165.4711 C.ar    1  UNL1        0.0312
     22 C         141.3157  145.0256  163.8481 C.3     1  UNL1        0.1022
     23 N         140.0338  144.6798  163.1501 N.3     1  UNL1       -0.2689
     24 C         138.7543  144.7857  165.4088 C.3     1  UNL1        0.0188
     25 C         138.7423  144.6744  163.9129 C.3     1  UNL1        0.0724
     26 C         140.0435  144.3393  161.6893 C.3     1  UNL1        0.0724
     27 C         140.9927  145.0392  160.7624 C.3     1  UNL1        0.0188
@<TRIPOS>BOND
     1    24    25    1
     2    25    23    1
     3    23    26    1
     4    26    27    1
     5    23    22    1
     6    22     1    1
     7     1     2   ar
     8     2     3   ar
     9     3     9    1
    10     9    11    1
    11    11    12   ar
    12    12    13   ar
    13    13    14   ar
    14    14    15   ar
    15    15    16   ar
    16    16    17   ar
    17    17    18    1
    18    17    19   ar
    19    19    20   ar
    20    20    21   ar
    21     3     4   ar
    22     4     5   ar
    23     5     6   ar
    24     6     7    1
    25     6     1   ar
    26    21    11   ar
    27    21    15   ar
    28     9    10    1
    29     7     8    1
@<TRIPOS>MOLECULE
*****
 27 29 0 0 0
SMALL
GASTEIGER

@<TRIPOS>ATOM
      1 C         140.6349  144.7834  163.6260 C.ar    1  UNL1        0.0288
      2 C         140.2714  143.5369  164.3771 C.ar    1  UNL1        0.0147
      3 C         138.8841  142.9761  164.2729 C.ar    1  UNL1        0.0482
      4 C         137.8602  143.6617  163.4175 C.ar    1  UNL1        0.0177
      5 C         138.2237  144.9082  162.6664 C.ar    1  UNL1        0.0376
      6 C         139.6110  145.4690  162.7706 C.ar    1  UNL1        0.1310
      7 O         139.9745  146.7155  162.0195 O.3     1  UNL1       -0.5058
      8 H         139.3349  147.1438  161.4852 H       1  UNL1        0.2922
      9 N         138.5207  141.7296  165.0240 N.pl3   1  UNL1       -0.3125
     10 H         137.9941  141.7907  165.8536 H       1  UNL1        0.1522
     11 C         138.9597  140.3900  164.5112 C.ar    1  UNL1        0.0513
     12 C         138.1338  139.6724  163.4850 C.ar    1  UNL1        0.0353
     13 C         138.5728  138.3329  162.9723 C.ar    1  UNL1        0.1001
     14 N         139.8376  137.7110  163.4856 N.ar    1  UNL1       -0.2437
     15 C         140.6634  138.4286  164.5117 C.ar    1  UNL1        0.0833
     16 C         141.9282  137.8068  165.0250 C.ar    1  UNL1        0.0305
     17 C         142.7541  138.5244  166.0511 C.ar    1  UNL1        0.0592
     18 CL        144.0189  137.9025  166.5645 Cl      1  UNL1       -0.0822
     19 C         142.3151  139.8639  166.5640 C.ar    1  UNL1        0.0115
     20 C         141.0503  140.4858  166.0507 C.ar    1  UNL1        0.0036
     21 C         140.2245  139.7681  165.0245 C.ar    1  UNL1        0.0312
     22 C         142.0222  145.3442  163.7302 C.3     1  UNL1        0.1022
     23 N         143.2096  144.4517  163.5216 N.3     1  UNL1       -0.2689
     24 C         144.7667  143.1741  161.8804 C.3     1  UNL1        0.0188
     25 C         143.4468  143.8200  162.1820 C.3     1  UNL1        0.0724
     26 C         144.1598  144.1910  164.6526 C.3     1  UNL1        0.0724
     27 C         143.9426  143.0155  165.5587 C.3     1  UNL1        0.0188
@<TRIPOS>BOND
     1    24    25    1
     2    25    23    1
     3    23    26    1
     4    26    27    1
     5    23    22    1
     6    22     1    1
     7     1     2   ar
     8     2     3   ar
     9     3     9    1
    10     9    11    1
    11    11    12   ar
    12    12    13   ar
    13    13    14   ar
    14    14    15   ar
    15    15    16   ar
    16    16    17   ar
    17    17    18    1
    18    17    19   ar
    19    19    20   ar
    20    20    21   ar
    21     3     4   ar
    22     4     5   ar
    23     5     6   ar
    24     6     7    1
    25     6     1   ar
    26    21    11   ar
    27    21    15   ar
    28     9    10    1
    29     7     8    1
@<TRIPOS>MOLECULE
*****
 27 29 0 0 0
SMALL
GASTEIGER

@<TRIPOS>ATOM
      1 C         141.5030  143.3355  162.8713 C.ar    1  UNL1        0.0288
      2 C         141.7781  142.3890  164.0020 C.ar    1  UNL1        0.0147
      3 C         143.1085  142.4141  164.6942 C.ar    1  UNL1        0.0482
      4 C         144.1640  143.3856  164.2557 C.ar    1  UNL1        0.0177
      5 C         143.8889  144.3320  163.1249 C.ar    1  UNL1        0.0376
      6 C         142.5583  144.3070  162.4327 C.ar    1  UNL1        0.1310
      7 O         142.2832  145.2534  161.3020 O.3     1  UNL1       -0.5058
      8 H         142.9425  145.8603  161.0281 H       1  UNL1        0.2922
      9 N         143.3836  141.4676  165.8249 N.pl3   1  UNL1       -0.3125
     10 H         144.1194  140.8173  165.7546 H       1  UNL1        0.1522
     11 C         142.5376  141.5120  167.0629 C.ar    1  UNL1        0.0513
     12 C         142.9733  142.3333  168.2400 C.ar    1  UNL1        0.0353
     13 C         142.1274  142.3777  169.4778 C.ar    1  UNL1        0.1001
     14 N         140.8457  141.6008  169.5385 N.ar    1  UNL1       -0.2437
     15 C         140.4100  140.7795  168.3614 C.ar    1  UNL1        0.0833
     16 C         139.1283  140.0026  168.4222 C.ar    1  UNL1        0.0305
     17 C         138.6926  139.1813  167.2451 C.ar    1  UNL1        0.0592
     18 CL        137.4109  138.4044  167.3058 Cl      1  UNL1       -0.0822
     19 C         139.5386  139.1369  166.0072 C.ar    1  UNL1        0.0115
     20 C         140.8203  139.9138  165.9464 C.ar    1  UNL1        0.0036
     21 C         141.2559  140.7351  167.1236 C.ar    1  UNL1        0.0312
     22 C         140.1724  143.3104  162.1791 C.3     1  UNL1        0.1022
     23 N         138.9199  143.6030  162.9508 N.3     1  UNL1       -0.2689
     24 C         138.8757  144.6616  165.3230 C.3     1  UNL1        0.0188
     25 C         138.8473  144.8153  163.8311 C.3     1  UNL1        0.0724
     26 C         137.7400  142.6832  162.8422 C.3     1  UNL1        0.0724
     27 C         137.7368  141.3770  163.5797 C.3     1  UNL1        0.0188
@<TRIPOS>BOND
     1    24    25    1
     2    25    23    1
     3    23    26    1
     4    26    27    1
     5    23    22    1
     6    22     1    1
     7     1     2   ar
     8     2     3   ar
     9     3     9    1
    10     9    11    1
    11    11    12   ar
    12    12    13   ar
    13    13    14   ar
    14    14    15   ar
    15    15    16   ar
    16    16    17   ar
    17    17    18    1
    18    17    19   ar
    19    19    20   ar
    20    20    21   ar
    21     3     4   ar
    22     4     5   ar
    23     5     6   ar
    24     6     7    1
    25     6     1   ar
    26    21    11   ar
    27    21    15   ar
    28     9    10    1
    29     7     8    1
@<TRIPOS>MOLECULE
*****
 27 29 0 0 0
SMALL
GASTEIGER

@<TRIPOS>ATOM
      1 C         138.0711  140.3011  163.0270 C.ar    1  UNL1        0.0288
      2 C         139.0705  140.1515  164.1354 C.ar    1  UNL1        0.0147
      3 C         139.8460  138.8756  164.2790 C.ar    1  UNL1        0.0482
      4 C         139.6220  137.7492  163.3140 C.ar    1  UNL1        0.0177
      5 C         138.6225  137.8987  162.2055 C.ar    1  UNL1        0.0376
      6 C         137.8471  139.1748  162.0620 C.ar    1  UNL1        0.1310
      7 O         136.8476  139.3244  160.9536 O.3     1  UNL1       -0.5058
      8 H         136.7077  138.6207  160.3508 H       1  UNL1        0.2922
      9 N         140.8454  138.7260  165.3875 N.pl3   1  UNL1       -0.3125
     10 H         141.0056  137.8419  165.7899 H       1  UNL1        0.1522
     11 C         141.6010  139.9235  165.8828 C.ar    1  UNL1        0.0513
     12 C         142.7981  140.4200  165.1277 C.ar    1  UNL1        0.0353
     13 C         143.5536  141.6174  165.6230 C.ar    1  UNL1        0.1001
     14 N         143.1118  142.3184  166.8734 N.ar    1  UNL1       -0.2437
     15 C         141.9147  141.8219  167.6285 C.ar    1  UNL1        0.0833
     16 C         141.4729  142.5228  168.8789 C.ar    1  UNL1        0.0305
     17 C         140.2758  142.0263  169.6340 C.ar    1  UNL1        0.0592
     18 CL        139.8341  142.7273  170.8845 Cl      1  UNL1       -0.0822
     19 C         139.5203  140.8288  169.1387 C.ar    1  UNL1        0.0115
     20 C         139.9620  140.1279  167.8883 C.ar    1  UNL1        0.0036
     21 C         141.1592  140.6244  167.1332 C.ar    1  UNL1        0.0312
     22 C         137.2956  141.5771  162.8835 C.3     1  UNL1        0.1022
     23 N         137.9945  142.8363  162.4641 N.3     1  UNL1       -0.2689
     24 C         137.9325  144.1852  164.6837 C.3     1  UNL1        0.0188
     25 C         137.7348  144.1183  163.1983 C.3     1  UNL1        0.0724
     26 C         138.9530  142.8136  161.3106 C.3     1  UNL1        0.0724
     27 C         138.4888  142.3594  159.9585 C.3     1  UNL1        0.0188
@<TRIPOS>BOND
     1    24    25    1
     2    25    23    1
     3    23    26    1
     4    26    27    1
     5    23    22    1
     6    22     1    1
     7     1     2   ar
     8     2     3   ar
     9     3     9    1
    10     9    11    1
    11    11    12   ar
    12    12    13   ar
    13    13    14   ar
    14    14    15   ar
    15    15    16   ar
    16    16    17   ar
    17    17    18    1
    18    17    19   ar
    19    19    20   ar
    20    20    21   ar
    21     3     4   ar
    22     4     5   ar
    23     5     6   ar
    24     6     7    1
    25     6     1   ar
    26    21    11   ar
    27    21    15   ar
    28     9    10    1
    29     7     8    1
@<TRIPOS>MOLECULE
*****
 27 29 0 0 0
SMALL
GASTEIGER

@<TRIPOS>ATOM
      1 C         140.6755  139.9576  168.0140 C.ar    1  UNL1        0.0288
      2 C         139.4025  140.2939  167.2955 C.ar    1  UNL1        0.0147
      3 C         139.2983  140.0806  165.8144 C.ar    1  UNL1        0.0482
      4 C         140.4672  139.5309  165.0518 C.ar    1  UNL1        0.0177
      5 C         141.7402  139.1946  165.7703 C.ar    1  UNL1        0.0376
      6 C         141.8444  139.4079  167.2514 C.ar    1  UNL1        0.1310
      7 O         143.1174  139.0716  167.9699 O.3     1  UNL1       -0.5058
      8 H         143.8476  138.7282  167.4935 H       1  UNL1        0.2922
      9 N         138.0252  140.4170  165.0959 N.pl3   1  UNL1       -0.3125
     10 H         137.2009  139.9166  165.2946 H       1  UNL1        0.1522
     11 C         138.0081  141.5156  164.0748 C.ar    1  UNL1        0.0513
     12 C         137.8784  142.9444  164.5125 C.ar    1  UNL1        0.0353
     13 C         137.8613  144.0430  163.4913 C.ar    1  UNL1        0.1001
     14 N         137.9740  143.7128  162.0325 N.ar    1  UNL1       -0.2437
     15 C         138.1038  142.2840  161.5948 C.ar    1  UNL1        0.0833
     16 C         138.2164  141.9538  160.1359 C.ar    1  UNL1        0.0305
     17 C         138.3462  140.5250  159.6982 C.ar    1  UNL1        0.0592
     18 CL        138.4589  140.1947  158.2394 Cl      1  UNL1       -0.0822
     19 C         138.3633  139.4263  160.7194 C.ar    1  UNL1        0.0115
     20 C         138.2506  139.7565  162.1782 C.ar    1  UNL1        0.0036
     21 C         138.1208  141.1854  162.6159 C.ar    1  UNL1        0.0312
     22 C         140.7796  140.1709  169.4951 C.3     1  UNL1        0.1022
     23 N         141.0985  141.5331  170.0361 N.3     1  UNL1       -0.2689
     24 C         140.3231  144.0089  169.8963 C.3     1  UNL1        0.0188
     25 C         140.0158  142.5641  170.1576 C.3     1  UNL1        0.0724
     26 C         142.5001  141.8644  170.4555 C.3     1  UNL1        0.0724
     27 C         143.5197  142.2508  169.4254 C.3     1  UNL1        0.0188
@<TRIPOS>BOND
     1    24    25    1
     2    25    23    1
     3    23    26    1
     4    26    27    1
     5    23    22    1
     6    22     1    1
     7     1     2   ar
     8     2     3   ar
     9     3     9    1
    10     9    11    1
    11    11    12   ar
    12    12    13   ar
    13    13    14   ar
    14    14    15   ar
    15    15    16   ar
    16    16    17   ar
    17    17    18    1
    18    17    19   ar
    19    19    20   ar
    20    20    21   ar
    21     3     4   ar
    22     4     5   ar
    23     5     6   ar
    24     6     7    1
    25     6     1   ar
    26    21    11   ar
    27    21    15   ar
    28     9    10    1
    29     7     8    1
@<TRIPOS>MOLECULE
*****
 27 29 0 0 0
SMALL
GASTEIGER

@<TRIPOS>ATOM
      1 C         142.4486  143.9029  163.7775 C.ar    1  UNL1        0.0288
      2 C         142.1215  142.5133  164.2382 C.ar    1  UNL1        0.0147
      3 C         143.0913  141.3950  163.9957 C.ar    1  UNL1        0.0482
      4 C         144.3882  141.6662  163.2924 C.ar    1  UNL1        0.0177
      5 C         144.7153  143.0557  162.8317 C.ar    1  UNL1        0.0376
      6 C         143.7454  144.1741  163.0743 C.ar    1  UNL1        0.1310
      7 O         144.0725  145.5636  162.6136 O.3     1  UNL1       -0.5058
      8 H         144.8826  145.7330  162.1743 H       1  UNL1        0.2922
      9 N         142.7642  140.0055  164.4564 N.pl3   1  UNL1       -0.3125
     10 H         143.4880  139.3607  164.6281 H       1  UNL1        0.1522
     11 C         141.3342  139.5984  164.6554 C.ar    1  UNL1        0.0513
     12 C         140.5507  139.0275  163.5109 C.ar    1  UNL1        0.0353
     13 C         139.1208  138.6205  163.7099 C.ar    1  UNL1        0.1001
     14 N         138.4744  138.7844  165.0535 N.ar    1  UNL1       -0.2437
     15 C         139.2580  139.3554  166.1981 C.ar    1  UNL1        0.0833
     16 C         138.6116  139.5193  167.5417 C.ar    1  UNL1        0.0305
     17 C         139.3951  140.0902  168.6863 C.ar    1  UNL1        0.0592
     18 CL        138.7487  140.2541  170.0299 Cl      1  UNL1       -0.0822
     19 C         140.8251  140.4973  168.4873 C.ar    1  UNL1        0.0115
     20 C         141.4715  140.3333  167.1436 C.ar    1  UNL1        0.0036
     21 C         140.6879  139.7624  165.9990 C.ar    1  UNL1        0.0312
     22 C         141.4787  145.0212  164.0201 C.3     1  UNL1        0.1022
     23 N         140.1965  145.0834  163.2443 N.3     1  UNL1       -0.2689
     24 C         140.9347  145.0324  160.7538 C.3     1  UNL1        0.0188
     25 C         140.1790  145.6879  161.8716 C.3     1  UNL1        0.0724
     26 C         138.9316  144.5412  163.8412 C.3     1  UNL1        0.0724
     27 C         138.6237  144.7795  165.2898 C.3     1  UNL1        0.0188
@<TRIPOS>BOND
     1    24    25    1
     2    25    23    1
     3    23    26    1
     4    26    27    1
     5    23    22    1
     6    22     1    1
     7     1     2   ar
     8     2     3   ar
     9     3     9    1
    10     9    11    1
    11    11    12   ar
    12    12    13   ar
    13    13    14   ar
    14    14    15   ar
    15    15    16   ar
    16    16    17   ar
    17    17    18    1
    18    17    19   ar
    19    19    20   ar
    20    20    21   ar
    21     3     4   ar
    22     4     5   ar
    23     5     6   ar
    24     6     7    1
    25     6     1   ar
    26    21    11   ar
    27    21    15   ar
    28     9    10    1
    29     7     8    1
@<TRIPOS>MOLECULE
*****
 27 29 0 0 0
SMALL
GASTEIGER

@<TRIPOS>ATOM
      1 C         143.9365  141.3126  162.4552 C.ar    1  UNL1        0.0288
      2 C         142.6849  140.5161  162.6766 C.ar    1  UNL1        0.0147
      3 C         142.6648  139.4198  163.7002 C.ar    1  UNL1        0.0482
      4 C         143.8964  139.1199  164.5023 C.ar    1  UNL1        0.0177
      5 C         145.1481  139.9164  164.2808 C.ar    1  UNL1        0.0376
      6 C         145.1681  141.0128  163.2572 C.ar    1  UNL1        0.1310
      7 O         146.4197  141.8093  163.0358 O.3     1  UNL1       -0.5058
      8 H         147.1890  141.6220  163.5368 H       1  UNL1        0.2922
      9 N         141.4132  138.6233  163.9216 N.pl3   1  UNL1       -0.3125
     10 H         141.4326  137.8266  164.4997 H       1  UNL1        0.1522
     11 C         140.1321  139.0407  163.2623 C.ar    1  UNL1        0.0513
     12 C         139.5162  138.1741  162.2042 C.ar    1  UNL1        0.0353
     13 C         138.2351  138.5915  161.5450 C.ar    1  UNL1        0.1001
     14 N         137.5700  139.8755  161.9439 N.ar    1  UNL1       -0.2437
     15 C         138.1860  140.7421  163.0020 C.ar    1  UNL1        0.0833
     16 C         137.5209  142.0260  163.4008 C.ar    1  UNL1        0.0305
     17 C         138.1369  142.8926  164.4589 C.ar    1  UNL1        0.0592
     18 CL        137.4718  144.1766  164.8578 Cl      1  UNL1       -0.0822
     19 C         139.4180  142.4752  165.1182 C.ar    1  UNL1        0.0115
     20 C         140.0831  141.1912  164.7194 C.ar    1  UNL1        0.0036
     21 C         139.4670  140.3246  163.6612 C.ar    1  UNL1        0.0312
     22 C         143.9565  142.4090  161.4316 C.3     1  UNL1        0.1022
     23 N         143.3782  143.7532  161.7610 N.3     1  UNL1       -0.2689
     24 C         143.3909  145.0847  163.9919 C.3     1  UNL1        0.0188
     25 C         144.0816  144.6548  162.7316 C.3     1  UNL1        0.0724
     26 C         142.0965  144.1958  161.1197 C.3     1  UNL1        0.0724
     27 C         140.7899  143.6201  161.5795 C.3     1  UNL1        0.0188
@<TRIPOS>BOND
     1    24    25    1
     2    25    23    1
     3    23    26    1
     4    26    27    1
     5    23    22    1
     6    22     1    1
     7     1     2   ar
     8     2     3   ar
     9     3     9    1
    10     9    11    1
    11    11    12   ar
    12    12    13   ar
    13    13    14   ar
    14    14    15   ar
    15    15    16   ar
    16    16    17   ar
    17    17    18    1
    18    17    19   ar
    19    19    20   ar
    20    20    21   ar
    21     3     4   ar
    22     4     5   ar
    23     5     6   ar
    24     6     7    1
    25     6     1   ar
    26    21    11   ar
    27    21    15   ar
    28     9    10    1
    29     7     8    1
@<TRIPOS>MOLECULE
*****
 27 29 0 0 0
SMALL
GASTEIGER

@<TRIPOS>ATOM
      1 C         141.4147  143.1259  162.9783 C.ar    1  UNL1        0.0288
      2 C         141.1619  141.8057  163.6441 C.ar    1  UNL1        0.0147
      3 C         142.2880  141.0761  164.3146 C.ar    1  UNL1        0.0482
      4 C         143.6669  141.6666  164.3192 C.ar    1  UNL1        0.0177
      5 C         143.9197  142.9868  163.6534 C.ar    1  UNL1        0.0376
      6 C         142.7935  143.7164  162.9829 C.ar    1  UNL1        0.1310
      7 O         143.0462  145.0366  162.3171 O.3     1  UNL1       -0.5058
      8 H         143.9075  145.4055  162.3200 H       1  UNL1        0.2922
      9 N         142.0353  139.7560  164.9804 N.pl3   1  UNL1       -0.3125
     10 H         142.6599  139.0076  164.8426 H       1  UNL1        0.1522
     11 C         140.8308  139.5761  165.8562 C.ar    1  UNL1        0.0513
     12 C         139.6401  138.8189  165.3476 C.ar    1  UNL1        0.0353
     13 C         138.4357  138.6390  166.2234 C.ar    1  UNL1        0.1001
     14 N         138.4220  139.2164  167.6077 N.ar    1  UNL1       -0.2437
     15 C         139.6127  139.9737  168.1163 C.ar    1  UNL1        0.0833
     16 C         139.5991  140.5511  169.5007 C.ar    1  UNL1        0.0305
     17 C         140.7898  141.3083  170.0092 C.ar    1  UNL1        0.0592
     18 CL        140.7761  141.8857  171.3936 Cl      1  UNL1       -0.0822
     19 C         141.9943  141.4882  169.1334 C.ar    1  UNL1        0.0115
     20 C         142.0080  140.9108  167.7491 C.ar    1  UNL1        0.0036
     21 C         140.8171  140.1535  167.2405 C.ar    1  UNL1        0.0312
     22 C         140.2885  143.8555  162.3078 C.3     1  UNL1        0.1022
     23 N         138.8730  143.6082  162.7382 N.3     1  UNL1       -0.2689
     24 C         137.3752  141.5027  163.0094 C.3     1  UNL1        0.0188
     25 C         138.0892  142.4843  162.1280 C.3     1  UNL1        0.0724
     26 C         138.2415  144.4847  163.7788 C.3     1  UNL1        0.0724
     27 C         138.8988  144.6540  165.1163 C.3     1  UNL1        0.0188
@<TRIPOS>BOND
     1    24    25    1
     2    25    23    1
     3    23    26    1
     4    26    27    1
     5    23    22    1
     6    22     1    1
     7     1     2   ar
     8     2     3   ar
     9     3     9    1
    10     9    11    1
    11    11    12   ar
    12    12    13   ar
    13    13    14   ar
    14    14    15   ar
    15    15    16   ar
    16    16    17   ar
    17    17    18    1
    18    17    19   ar
    19    19    20   ar
    20    20    21   ar
    21     3     4   ar
    22     4     5   ar
    23     5     6   ar
    24     6     7    1
    25     6     1   ar
    26    21    11   ar
    27    21    15   ar
    28     9    10    1
    29     7     8    1
