@<TRIPOS>MOLECULE
*****
 35 39 0 0 0
SMALL
GASTEIGER

@<TRIPOS>ATOM
      1 C         143.2179  143.5430  162.8686 C.2     1  UNL1        0.1157
      2 N         143.4147  143.6616  161.3862 N.2     1  UNL1       -0.1790
      3 N         142.0614  143.7394  160.7439 N.pl3   1  UNL1       -0.2060
      4 C         141.6364  143.8653  159.3108 C.ar    1  UNL1        0.1052
      5 C         142.6695  143.9357  158.2256 C.ar    1  UNL1        0.0490
      6 C         142.2445  144.0616  156.7926 C.ar    1  UNL1        0.1416
      7 F         143.2776  144.1320  155.7073 F       1  UNL1       -0.2041
      8 C         140.7864  144.1171  156.4448 C.ar    1  UNL1        0.0328
      9 C         139.7534  144.0467  157.5301 C.ar    1  UNL1        0.0405
     10 C         140.1784  143.9208  158.9630 C.ar    1  UNL1        0.1537
     11 O         139.1453  143.8504  160.0484 O.3     1  UNL1       -0.4723
     12 C         139.5703  143.7245  161.4813 C.3     1  UNL1        0.2277
     13 C         141.0284  143.6690  161.8291 C.3     1  UNL1        0.1488
     14 C         141.7431  143.5476  163.1422 C.3     1  UNL1        0.0806
     15 C         140.3572  143.5259  163.7155 C.ar    1  UNL1       -0.0157
     16 C         139.7924  144.7575  164.3591 C.ar    1  UNL1       -0.0039
     17 C         138.4064  144.7358  164.9325 C.ar    1  UNL1       -0.0003
     18 C         137.5852  143.4825  164.8621 C.ar    1  UNL1       -0.0000
     19 C         138.1500  142.2509  164.2185 C.ar    1  UNL1       -0.0003
     20 C         139.5360  142.2726  163.6452 C.ar    1  UNL1       -0.0039
     21 C         145.2087  142.2411  163.9135 C.3     1  UNL1        0.0786
     22 C         144.3052  143.4383  163.8967 C.2     1  UNL1        0.1887
     23 O         144.4889  144.5308  164.9079 O.2     1  UNL1       -0.2900
     24 C         142.1681  143.4217  164.5753 C.3     1  UNL1        0.0130
     25 C         141.8187  142.1893  165.3557 C.3     1  UNL1        0.0181
     26 C         142.2696  142.0503  166.7795 C.3     1  UNL1        0.0722
     27 N         141.2680  141.7647  167.8590 N.3     1  UNL1       -0.2708
     28 C         141.1887  142.7817  168.9587 C.3     1  UNL1        0.0936
     29 C         140.2999  142.7850  170.1671 C.3     1  UNL1        0.1067
     30 N         139.2709  141.7723  170.5741 N.am    1  UNL1       -0.3029
     31 C         138.8767  140.5061  169.8733 C.2     1  UNL1        0.2239
     32 O         137.8031  139.6994  170.5418 O.2     1  UNL1       -0.2751
     33 C         139.4139  139.9398  168.5924 C.3     1  UNL1        0.1023
     34 C         140.4781  140.5000  167.6959 C.3     1  UNL1        0.0818
     35 H         138.7909  141.9640  171.4120 H       1  UNL1        0.1495
@<TRIPOS>BOND
     1    21    22    1
     2    22    23    2
     3    22     1    1
     4     1     2    2
     5     2     3    1
     6     3     4    1
     7     4     5   ar
     8     5     6   ar
     9     6     7    1
    10     6     8   ar
    11     8     9   ar
    12     9    10   ar
    13    10    11    1
    14    11    12    1
    15    13    12    1
    16    13    14    1
    17    14    24    1
    18    24    25    1
    19    25    26    1
    20    26    27    1
    21    27    28    1
    22    28    29    1
    23    29    30    1
    24    30    31   am
    25    31    32    2
    26    31    33    1
    27    33    34    1
    28    14    15    1
    29    15    16   ar
    30    16    17   ar
    31    17    18   ar
    32    18    19   ar
    33    19    20   ar
    34    14     1    1
    35    34    27    1
    36    20    15   ar
    37    13     3    1
    38    10     4   ar
    39    30    35    1
@<TRIPOS>MOLECULE
*****
 35 39 0 0 0
SMALL
GASTEIGER

@<TRIPOS>ATOM
      1 C         143.2187  142.2218  161.9947 C.2     1  UNL1        0.1157
      2 N         143.3483  142.7403  160.5931 N.2     1  UNL1       -0.1790
      3 N         142.1485  143.5918  160.3011 N.pl3   1  UNL1       -0.2060
      4 C         141.7366  144.3611  159.0810 C.ar    1  UNL1        0.1052
      5 C         142.6078  144.3532  157.8600 C.ar    1  UNL1        0.0490
      6 C         142.1959  145.1225  156.6399 C.ar    1  UNL1        0.1416
      7 F         143.0671  145.1147  155.4188 F       1  UNL1       -0.2041
      8 C         140.9129  145.8996  156.6409 C.ar    1  UNL1        0.0328
      9 C         140.0418  145.9074  157.8619 C.ar    1  UNL1        0.0405
     10 C         140.4536  145.1382  159.0820 C.ar    1  UNL1        0.1537
     11 O         139.5825  145.1460  160.3031 O.3     1  UNL1       -0.4723
     12 C         139.9943  144.3767  161.5232 C.3     1  UNL1        0.2277
     13 C         141.2773  143.5996  161.5222 C.3     1  UNL1        0.1488
     14 C         141.9387  142.7530  162.5689 C.3     1  UNL1        0.0806
     15 C         140.7449  143.1232  163.3981 C.ar    1  UNL1       -0.0157
     16 C         139.6235  142.1434  163.5777 C.ar    1  UNL1       -0.0039
     17 C         138.4296  142.5137  164.4070 C.ar    1  UNL1       -0.0003
     18 C         138.3572  143.8638  165.0567 C.ar    1  UNL1       -0.0000
     19 C         139.4786  144.8436  164.8771 C.ar    1  UNL1       -0.0003
     20 C         140.6725  144.4733  164.0478 C.ar    1  UNL1       -0.0039
     21 C         145.5322  141.8660  163.1222 C.3     1  UNL1        0.0786
     22 C         144.1972  141.3290  162.6986 C.2     1  UNL1        0.1887
     23 O         143.8408  139.8992  162.9788 O.2     1  UNL1       -0.2900
     24 C         142.3506  141.9837  163.7890 C.3     1  UNL1        0.0130
     25 C         142.7338  142.7137  165.0421 C.3     1  UNL1        0.0181
     26 C         143.1255  141.9441  166.2684 C.3     1  UNL1        0.0722
     27 N         142.4999  142.2723  167.5917 N.3     1  UNL1       -0.2708
     28 C         143.4404  142.3360  168.7584 C.3     1  UNL1        0.0936
     29 C         143.1297  142.6366  170.1948 C.3     1  UNL1        0.1067
     30 N         141.8018  142.9477  170.8191 N.am    1  UNL1       -0.3029
     31 C         140.4566  143.0351  170.1613 C.2     1  UNL1        0.2239
     32 O         139.3091  143.3687  171.0681 O.2     1  UNL1       -0.2751
     33 C         140.1070  142.8329  168.7168 C.3     1  UNL1        0.1023
     34 C         141.0164  142.4934  167.5731 C.3     1  UNL1        0.0818
     35 H         141.8149  143.1169  171.7889 H       1  UNL1        0.1495
@<TRIPOS>BOND
     1    21    22    1
     2    22    23    2
     3    22     1    1
     4     1     2    2
     5     2     3    1
     6     3     4    1
     7     4     5   ar
     8     5     6   ar
     9     6     7    1
    10     6     8   ar
    11     8     9   ar
    12     9    10   ar
    13    10    11    1
    14    11    12    1
    15    13    12    1
    16    13    14    1
    17    14    24    1
    18    24    25    1
    19    25    26    1
    20    26    27    1
    21    27    28    1
    22    28    29    1
    23    29    30    1
    24    30    31   am
    25    31    32    2
    26    31    33    1
    27    33    34    1
    28    14    15    1
    29    15    16   ar
    30    16    17   ar
    31    17    18   ar
    32    18    19   ar
    33    19    20   ar
    34    14     1    1
    35    34    27    1
    36    20    15   ar
    37    13     3    1
    38    10     4   ar
    39    30    35    1
@<TRIPOS>MOLECULE
*****
 35 39 0 0 0
SMALL
GASTEIGER

@<TRIPOS>ATOM
      1 C         140.5627  138.8465  164.1789 C.2     1  UNL1        0.1157
      2 N         139.8029  138.9541  165.4677 N.2     1  UNL1       -0.1790
      3 N         140.5337  139.9152  166.3577 N.pl3   1  UNL1       -0.2060
      4 C         140.2525  140.4103  167.7455 C.ar    1  UNL1        0.1052
      5 C         139.0410  139.9239  168.4842 C.ar    1  UNL1        0.0490
      6 C         138.7599  140.4190  169.8719 C.ar    1  UNL1        0.1416
      7 F         137.5484  139.9326  170.6107 F       1  UNL1       -0.2041
      8 C         139.6901  141.4005  170.5209 C.ar    1  UNL1        0.0328
      9 C         140.9016  141.8870  169.7822 C.ar    1  UNL1        0.0405
     10 C         141.1827  141.3919  168.3945 C.ar    1  UNL1        0.1537
     11 O         142.3942  141.8783  167.6557 O.3     1  UNL1       -0.4723
     12 C         142.6754  141.3832  166.2680 C.3     1  UNL1        0.2277
     13 C         141.7451  140.4017  165.6190 C.3     1  UNL1        0.1488
     14 C         141.7631  139.7412  164.2724 C.3     1  UNL1        0.0806
     15 C         143.0222  140.5323  164.0758 C.ar    1  UNL1       -0.0157
     16 C         142.9470  142.0029  163.7901 C.ar    1  UNL1       -0.0039
     17 C         144.2062  142.7941  163.5935 C.ar    1  UNL1       -0.0003
     18 C         145.5406  142.1146  163.6825 C.ar    1  UNL1       -0.0000
     19 C         145.6157  140.6440  163.9682 C.ar    1  UNL1       -0.0003
     20 C         144.3566  139.8528  164.1648 C.ar    1  UNL1       -0.0039
     21 C         138.8858  138.2236  162.2948 C.3     1  UNL1        0.0786
     22 C         140.1880  137.9939  163.0030 C.2     1  UNL1        0.1887
     23 O         141.1154  136.9118  162.5353 O.2     1  UNL1       -0.2900
     24 C         142.0443  139.2461  162.8846 C.3     1  UNL1        0.0130
     25 C         142.2144  140.2235  161.7597 C.3     1  UNL1        0.0181
     26 C         141.0154  140.7089  161.0002 C.3     1  UNL1        0.0722
     27 N         140.4193  142.0486  161.3162 N.3     1  UNL1       -0.2708
     28 C         139.0657  142.0227  161.9620 C.3     1  UNL1        0.0936
     29 C         138.2142  143.1789  162.3957 C.3     1  UNL1        0.1067
     30 N         138.5058  144.6465  162.2907 N.am    1  UNL1       -0.3029
     31 C         139.7211  145.3204  161.7260 C.2     1  UNL1        0.2239
     32 O         139.7113  146.8199  161.7656 O.2     1  UNL1       -0.2751
     33 C         140.9448  144.6932  161.1269 C.3     1  UNL1        0.1023
     34 C         141.2556  143.2371  160.9445 C.3     1  UNL1        0.0818
     35 H         137.8072  145.2468  162.6383 H       1  UNL1        0.1495
@<TRIPOS>BOND
     1    21    22    1
     2    22    23    2
     3    22     1    1
     4     1     2    2
     5     2     3    1
     6     3     4    1
     7     4     5   ar
     8     5     6   ar
     9     6     7    1
    10     6     8   ar
    11     8     9   ar
    12     9    10   ar
    13    10    11    1
    14    11    12    1
    15    13    12    1
    16    13    14    1
    17    14    24    1
    18    24    25    1
    19    25    26    1
    20    26    27    1
    21    27    28    1
    22    28    29    1
    23    29    30    1
    24    30    31   am
    25    31    32    2
    26    31    33    1
    27    33    34    1
    28    14    15    1
    29    15    16   ar
    30    16    17   ar
    31    17    18   ar
    32    18    19   ar
    33    19    20   ar
    34    14     1    1
    35    34    27    1
    36    20    15   ar
    37    13     3    1
    38    10     4   ar
    39    30    35    1
@<TRIPOS>MOLECULE
*****
 35 39 0 0 0
SMALL
GASTEIGER

@<TRIPOS>ATOM
      1 C         143.6609  139.6647  163.0357 C.2     1  UNL1        0.1157
      2 N         143.7666  139.3618  161.5704 N.2     1  UNL1       -0.1790
      3 N         142.3823  139.1193  161.0463 N.pl3   1  UNL1       -0.2060
      4 C         141.8729  138.7788  159.6770 C.ar    1  UNL1        0.1052
      5 C         142.8342  138.6259  158.5358 C.ar    1  UNL1        0.0490
      6 C         142.3248  138.2855  157.1666 C.ar    1  UNL1        0.1416
      7 F         143.2861  138.1325  156.0253 F       1  UNL1       -0.2041
      8 C         140.8541  138.0980  156.9388 C.ar    1  UNL1        0.0328
      9 C         139.8928  138.2510  158.0800 C.ar    1  UNL1        0.0405
     10 C         140.4022  138.5914  159.4491 C.ar    1  UNL1        0.1537
     11 O         139.4409  138.7444  160.5905 O.3     1  UNL1       -0.4723
     12 C         139.9504  139.0848  161.9596 C.3     1  UNL1        0.2277
     13 C         141.4210  139.2723  162.1875 C.3     1  UNL1        0.1488
     14 C         142.2113  139.6094  163.4171 C.3     1  UNL1        0.0806
     15 C         140.8681  139.6252  164.0847 C.ar    1  UNL1       -0.0157
     16 C         140.0073  140.8512  164.0087 C.ar    1  UNL1       -0.0039
     17 C         138.6641  140.8671  164.6764 C.ar    1  UNL1       -0.0003
     18 C         138.1817  139.6569  165.4199 C.ar    1  UNL1       -0.0000
     19 C         139.0426  138.4309  165.4959 C.ar    1  UNL1       -0.0003
     20 C         140.3858  138.4150  164.8282 C.ar    1  UNL1       -0.0039
     21 C         145.5596  141.2575  163.8156 C.3     1  UNL1        0.0786
     22 C         144.8042  139.9694  163.9578 C.2     1  UNL1        0.1887
     23 O         145.1920  138.9861  165.0221 O.2     1  UNL1       -0.2900
     24 C         142.7207  139.9498  164.7863 C.3     1  UNL1        0.0130
     25 C         142.3889  141.2770  165.4014 C.3     1  UNL1        0.0181
     26 C         142.9032  141.6197  166.7682 C.3     1  UNL1        0.0722
     27 N         142.1661  141.1486  167.9867 N.3     1  UNL1       -0.2708
     28 C         142.9736  141.0775  169.2488 C.3     1  UNL1        0.0936
     29 C         142.5333  140.6511  170.6180 C.3     1  UNL1        0.1067
     30 N         141.1769  140.1906  171.0631 N.am    1  UNL1       -0.3029
     31 C         139.9258  140.0426  170.2490 C.2     1  UNL1        0.2239
     32 O         138.7188  139.5540  170.9937 O.2     1  UNL1       -0.2751
     33 C         139.7219  140.3187  168.7889 C.3     1  UNL1        0.1023
     34 C         140.7190  140.8109  167.7820 C.3     1  UNL1        0.0818
     35 H         141.0974  139.9541  172.0154 H       1  UNL1        0.1495
@<TRIPOS>BOND
     1    21    22    1
     2    22    23    2
     3    22     1    1
     4     1     2    2
     5     2     3    1
     6     3     4    1
     7     4     5   ar
     8     5     6   ar
     9     6     7    1
    10     6     8   ar
    11     8     9   ar
    12     9    10   ar
    13    10    11    1
    14    11    12    1
    15    13    12    1
    16    13    14    1
    17    14    24    1
    18    24    25    1
    19    25    26    1
    20    26    27    1
    21    27    28    1
    22    28    29    1
    23    29    30    1
    24    30    31   am
    25    31    32    2
    26    31    33    1
    27    33    34    1
    28    14    15    1
    29    15    16   ar
    30    16    17   ar
    31    17    18   ar
    32    18    19   ar
    33    19    20   ar
    34    14     1    1
    35    34    27    1
    36    20    15   ar
    37    13     3    1
    38    10     4   ar
    39    30    35    1
@<TRIPOS>MOLECULE
*****
 35 39 0 0 0
SMALL
GASTEIGER

@<TRIPOS>ATOM
      1 C         139.9774  143.6383  163.2236 C.2     1  UNL1        0.1157
      2 N         139.6899  144.3651  161.9433 N.2     1  UNL1       -0.1790
      3 N         140.8511  144.1516  161.0183 N.pl3   1  UNL1       -0.2060
      4 C         141.1230  144.6282  159.6222 C.ar    1  UNL1        0.1052
      5 C         140.1178  145.4868  158.9137 C.ar    1  UNL1        0.0490
      6 C         140.3897  145.9634  157.5177 C.ar    1  UNL1        0.1416
      7 F         139.3844  146.8221  156.8091 F       1  UNL1       -0.2041
      8 C         141.6669  145.5813  156.8302 C.ar    1  UNL1        0.0328
      9 C         142.6722  144.7226  157.5387 C.ar    1  UNL1        0.0405
     10 C         142.4003  144.2460  158.9347 C.ar    1  UNL1        0.1537
     11 O         143.4056  143.3873  159.6432 O.3     1  UNL1       -0.4723
     12 C         143.1336  142.9108  161.0392 C.3     1  UNL1        0.2277
     13 C         141.8564  143.2929  161.7268 C.3     1  UNL1        0.1488
     14 C         141.3165  142.9757  163.0898 C.3     1  UNL1        0.0806
     15 C         142.5986  142.2134  163.2478 C.ar    1  UNL1       -0.0157
     16 C         142.6110  140.7232  163.0773 C.ar    1  UNL1       -0.0039
     17 C         143.8932  139.9608  163.2353 C.ar    1  UNL1       -0.0003
     18 C         145.1630  140.6887  163.5638 C.ar    1  UNL1       -0.0000
     19 C         145.1506  142.1789  163.7343 C.ar    1  UNL1       -0.0003
     20 C         143.8684  142.9413  163.5763 C.ar    1  UNL1       -0.0039
     21 C         138.8802  144.8099  165.2666 C.3     1  UNL1        0.0786
     22 C         139.0830  143.5838  164.4266 C.2     1  UNL1        0.1887
     23 O         138.3914  142.3032  164.7895 O.2     1  UNL1       -0.2900
     24 C         141.0445  142.4991  164.4859 C.3     1  UNL1        0.0130
     25 C         141.8861  142.9941  165.6246 C.3     1  UNL1        0.0181
     26 C         142.2543  142.0658  166.7438 C.3     1  UNL1        0.0722
     27 N         141.2651  141.7751  167.8334 N.3     1  UNL1       -0.2708
     28 C         141.2226  142.7691  168.9559 C.3     1  UNL1        0.0936
     29 C         140.3536  142.7622  170.1787 C.3     1  UNL1        0.1067
     30 N         139.3127  141.7598  170.5807 N.am    1  UNL1       -0.3029
     31 C         138.8836  140.5167  169.8593 C.2     1  UNL1        0.2239
     32 O         137.8061  139.7153  170.5280 O.2     1  UNL1       -0.2751
     33 C         139.3894  139.9688  168.5578 C.3     1  UNL1        0.1023
     34 C         140.4493  140.5289  167.6562 C.3     1  UNL1        0.0818
     35 H         138.8499  141.9419  171.4304 H       1  UNL1        0.1495
@<TRIPOS>BOND
     1    21    22    1
     2    22    23    2
     3    22     1    1
     4     1     2    2
     5     2     3    1
     6     3     4    1
     7     4     5   ar
     8     5     6   ar
     9     6     7    1
    10     6     8   ar
    11     8     9   ar
    12     9    10   ar
    13    10    11    1
    14    11    12    1
    15    13    12    1
    16    13    14    1
    17    14    24    1
    18    24    25    1
    19    25    26    1
    20    26    27    1
    21    27    28    1
    22    28    29    1
    23    29    30    1
    24    30    31   am
    25    31    32    2
    26    31    33    1
    27    33    34    1
    28    14    15    1
    29    15    16   ar
    30    16    17   ar
    31    17    18   ar
    32    18    19   ar
    33    19    20   ar
    34    14     1    1
    35    34    27    1
    36    20    15   ar
    37    13     3    1
    38    10     4   ar
    39    30    35    1
@<TRIPOS>MOLECULE
*****
 35 39 0 0 0
SMALL
GASTEIGER

@<TRIPOS>ATOM
      1 C         143.6525  141.6432  164.3115 C.2     1  UNL1        0.1157
      2 N         143.7756  142.1775  165.7078 N.2     1  UNL1       -0.1790
      3 N         142.7566  141.4826  166.5614 N.pl3   1  UNL1       -0.2060
      4 C         142.4170  141.6029  168.0176 C.ar    1  UNL1        0.1052
      5 C         143.1698  142.5667  168.8861 C.ar    1  UNL1        0.0490
      6 C         142.8302  142.6870  170.3422 C.ar    1  UNL1        0.1416
      7 F         143.5829  143.6508  171.2108 F       1  UNL1       -0.2041
      8 C         141.7378  141.8434  170.9297 C.ar    1  UNL1        0.0328
      9 C         140.9850  140.8796  170.0611 C.ar    1  UNL1        0.0405
     10 C         141.3247  140.7593  168.6051 C.ar    1  UNL1        0.1537
     11 O         140.5719  139.7955  167.7365 O.3     1  UNL1       -0.4723
     12 C         140.9115  139.6752  166.2804 C.3     1  UNL1        0.2277
     13 C         142.0039  140.5188  165.6929 C.3     1  UNL1        0.1488
     14 C         142.5576  140.6181  164.3024 C.3     1  UNL1        0.0806
     15 C         141.5337  139.5677  163.9888 C.ar    1  UNL1       -0.0157
     16 C         140.0823  139.9370  163.9036 C.ar    1  UNL1       -0.0039
     17 C         139.0583  138.8866  163.5900 C.ar    1  UNL1       -0.0003
     18 C         139.4857  137.4671  163.3615 C.ar    1  UNL1       -0.0000
     19 C         140.9370  137.0978  163.4467 C.ar    1  UNL1       -0.0003
     20 C         141.9611  138.1482  163.7603 C.ar    1  UNL1       -0.0039
     21 C         144.4306  143.4791  162.6459 C.3     1  UNL1        0.0786
     22 C         144.4793  142.0608  163.1317 C.2     1  UNL1        0.1887
     23 O         145.3549  141.0600  162.4375 O.2     1  UNL1       -0.2900
     24 C         142.8972  140.4977  162.8462 C.3     1  UNL1        0.0130
     25 C         141.8599  140.8026  161.8065 C.3     1  UNL1        0.0181
     26 C         141.4690  142.2243  161.5314 C.3     1  UNL1        0.0722
     27 N         140.4385  142.8981  162.3883 N.3     1  UNL1       -0.2708
     28 C         139.0170  142.7532  161.9319 C.3     1  UNL1        0.0936
     29 C         137.7717  143.3021  162.5628 C.3     1  UNL1        0.1067
     30 N         137.6403  144.1313  163.8059 N.am    1  UNL1       -0.3029
     31 C         138.7218  144.6165  164.7250 C.2     1  UNL1        0.2239
     32 O         138.2627  145.4340  165.8959 O.2     1  UNL1       -0.2751
     33 C         140.2018  144.3923  164.6282 C.3     1  UNL1        0.1023
     34 C         140.9658  143.6275  163.5883 C.3     1  UNL1        0.0818
     35 H         136.7230  144.3916  164.0508 H       1  UNL1        0.1495
@<TRIPOS>BOND
     1    21    22    1
     2    22    23    2
     3    22     1    1
     4     1     2    2
     5     2     3    1
     6     3     4    1
     7     4     5   ar
     8     5     6   ar
     9     6     7    1
    10     6     8   ar
    11     8     9   ar
    12     9    10   ar
    13    10    11    1
    14    11    12    1
    15    13    12    1
    16    13    14    1
    17    14    24    1
    18    24    25    1
    19    25    26    1
    20    26    27    1
    21    27    28    1
    22    28    29    1
    23    29    30    1
    24    30    31   am
    25    31    32    2
    26    31    33    1
    27    33    34    1
    28    14    15    1
    29    15    16   ar
    30    16    17   ar
    31    17    18   ar
    32    18    19   ar
    33    19    20   ar
    34    14     1    1
    35    34    27    1
    36    20    15   ar
    37    13     3    1
    38    10     4   ar
    39    30    35    1
@<TRIPOS>MOLECULE
*****
 35 39 0 0 0
SMALL
GASTEIGER

@<TRIPOS>ATOM
      1 C         139.6748  139.2051  162.8635 C.2     1  UNL1        0.1157
      2 N         139.4775  139.0292  161.3870 N.2     1  UNL1       -0.1790
      3 N         139.1511  140.3704  160.8000 N.pl3   1  UNL1       -0.2060
      4 C         138.8573  140.8065  159.3951 C.ar    1  UNL1        0.1052
      5 C         138.8617  139.8017  158.2815 C.ar    1  UNL1        0.0490
      6 C         138.5679  140.2378  156.8767 C.ar    1  UNL1        0.1416
      7 F         138.5723  139.2330  155.7629 F       1  UNL1       -0.2041
      8 C         138.2697  141.6788  156.5856 C.ar    1  UNL1        0.0328
      9 C         138.2653  142.6836  157.6993 C.ar    1  UNL1        0.0405
     10 C         138.5591  142.2474  159.1040 C.ar    1  UNL1        0.1537
     11 O         138.5547  143.2523  160.2178 O.3     1  UNL1       -0.4723
     12 C         138.8485  142.8161  161.6226 C.3     1  UNL1        0.2277
     13 C         139.1467  141.3752  161.9137 C.3     1  UNL1        0.1488
     14 C         139.4704  140.6550  163.1890 C.3     1  UNL1        0.0806
     15 C         139.3274  142.0137  163.8082 C.ar    1  UNL1       -0.0157
     16 C         140.5023  142.9451  163.8525 C.ar    1  UNL1       -0.0039
     17 C         140.3593  144.3039  164.4717 C.ar    1  UNL1       -0.0003
     18 C         139.0413  144.7312  165.0466 C.ar    1  UNL1       -0.0000
     19 C         137.8664  143.7998  165.0023 C.ar    1  UNL1       -0.0003
     20 C         138.0094  142.4410  164.3831 C.ar    1  UNL1       -0.0039
     21 C         141.3585  137.4536  163.7841 C.3     1  UNL1        0.0786
     22 C         140.0167  138.1213  163.8426 C.2     1  UNL1        0.1887
     23 O         139.0165  137.7052  164.8803 O.2     1  UNL1       -0.2900
     24 C         139.7642  140.2188  164.5939 C.3     1  UNL1        0.0130
     25 C         141.0478  140.6280  165.2532 C.3     1  UNL1        0.0181
     26 C         141.4015  140.0866  166.6066 C.3     1  UNL1        0.0722
     27 N         140.9383  140.7979  167.8434 N.3     1  UNL1       -0.2708
     28 C         140.6943  139.9287  169.0413 C.3     1  UNL1        0.0936
     29 C         140.2320  140.3313  170.4103 C.3     1  UNL1        0.1067
     30 N         139.8997  141.7025  170.9196 N.am    1  UNL1       -0.3029
     31 C         139.9475  143.0097  170.1857 C.2     1  UNL1        0.2239
     32 O         139.5510  144.2179  170.9815 O.2     1  UNL1       -0.2751
     33 C         140.3395  143.2688  168.7612 C.3     1  UNL1        0.1023
     34 C         140.7804  142.2844  167.7188 C.3     1  UNL1        0.0818
     35 H         139.6122  141.7508  171.8600 H       1  UNL1        0.1495
@<TRIPOS>BOND
     1    21    22    1
     2    22    23    2
     3    22     1    1
     4     1     2    2
     5     2     3    1
     6     3     4    1
     7     4     5   ar
     8     5     6   ar
     9     6     7    1
    10     6     8   ar
    11     8     9   ar
    12     9    10   ar
    13    10    11    1
    14    11    12    1
    15    13    12    1
    16    13    14    1
    17    14    24    1
    18    24    25    1
    19    25    26    1
    20    26    27    1
    21    27    28    1
    22    28    29    1
    23    29    30    1
    24    30    31   am
    25    31    32    2
    26    31    33    1
    27    33    34    1
    28    14    15    1
    29    15    16   ar
    30    16    17   ar
    31    17    18   ar
    32    18    19   ar
    33    19    20   ar
    34    14     1    1
    35    34    27    1
    36    20    15   ar
    37    13     3    1
    38    10     4   ar
    39    30    35    1
@<TRIPOS>MOLECULE
*****
 35 39 0 0 0
SMALL
GASTEIGER

@<TRIPOS>ATOM
      1 C         143.8259  141.7435  164.3155 C.2     1  UNL1        0.1157
      2 N         143.8815  142.2646  165.7210 N.2     1  UNL1       -0.1790
      3 N         142.8304  141.5536  166.5207 N.pl3   1  UNL1       -0.2060
      4 C         142.4242  141.6567  167.9611 C.ar    1  UNL1        0.1052
      5 C         143.1294  142.6171  168.8722 C.ar    1  UNL1        0.0490
      6 C         142.7233  142.7202  170.3125 C.ar    1  UNL1        0.1416
      7 F         143.4284  143.6807  171.2237 F       1  UNL1       -0.2041
      8 C         141.6120  141.8629  170.8416 C.ar    1  UNL1        0.0328
      9 C         140.9068  140.9024  169.9304 C.ar    1  UNL1        0.0405
     10 C         141.3129  140.7994  168.4902 C.ar    1  UNL1        0.1537
     11 O         140.6078  139.8389  167.5789 O.3     1  UNL1       -0.4723
     12 C         141.0139  139.7358  166.1387 C.3     1  UNL1        0.2277
     13 C         142.1252  140.5931  165.6096 C.3     1  UNL1        0.1488
     14 C         142.7405  140.7105  164.2466 C.3     1  UNL1        0.0806
     15 C         141.7400  139.6560  163.8767 C.ar    1  UNL1       -0.0157
     16 C         142.0383  138.2111  164.1475 C.ar    1  UNL1       -0.0039
     17 C         141.0378  137.1565  163.7775 C.ar    1  UNL1       -0.0003
     18 C         139.7389  137.5468  163.1367 C.ar    1  UNL1       -0.0000
     19 C         139.4406  138.9917  162.8659 C.ar    1  UNL1       -0.0003
     20 C         140.4411  140.0463  163.2358 C.ar    1  UNL1       -0.0039
     21 C         144.1975  143.1828  162.1846 C.3     1  UNL1        0.0786
     22 C         144.7021  142.1790  163.1784 C.2     1  UNL1        0.1887
     23 O         146.0828  141.6107  163.0353 O.2     1  UNL1       -0.2900
     24 C         143.1466  140.6074  162.8063 C.3     1  UNL1        0.0130
     25 C         143.7494  139.3361  162.2862 C.3     1  UNL1        0.0181
     26 C         144.1350  139.2254  160.8409 C.3     1  UNL1        0.0722
     27 N         143.0860  139.3345  159.7742 N.3     1  UNL1       -0.2708
     28 C         143.4796  140.1082  158.5510 C.3     1  UNL1        0.0936
     29 C         142.6664  140.3939  157.3232 C.3     1  UNL1        0.1067
     30 N         141.2590  139.9764  157.0156 N.am    1  UNL1       -0.3029
     31 C         140.3170  139.1701  157.8596 C.2     1  UNL1        0.2239
     32 O         138.9631  138.9184  157.2649 O.2     1  UNL1       -0.2751
     33 C         140.5497  138.5821  159.2198 C.3     1  UNL1        0.1023
     34 C         141.7821  138.6553  160.0719 C.3     1  UNL1        0.0818
     35 H         140.9069  140.2705  156.1445 H       1  UNL1        0.1495
@<TRIPOS>BOND
     1    21    22    1
     2    22    23    2
     3    22     1    1
     4     1     2    2
     5     2     3    1
     6     3     4    1
     7     4     5   ar
     8     5     6   ar
     9     6     7    1
    10     6     8   ar
    11     8     9   ar
    12     9    10   ar
    13    10    11    1
    14    11    12    1
    15    13    12    1
    16    13    14    1
    17    14    24    1
    18    24    25    1
    19    25    26    1
    20    26    27    1
    21    27    28    1
    22    28    29    1
    23    29    30    1
    24    30    31   am
    25    31    32    2
    26    31    33    1
    27    33    34    1
    28    14    15    1
    29    15    16   ar
    30    16    17   ar
    31    17    18   ar
    32    18    19   ar
    33    19    20   ar
    34    14     1    1
    35    34    27    1
    36    20    15   ar
    37    13     3    1
    38    10     4   ar
    39    30    35    1
@<TRIPOS>MOLECULE
*****
 35 39 0 0 0
SMALL
GASTEIGER

@<TRIPOS>ATOM
      1 C         139.1272  141.1246  164.4417 C.2     1  UNL1        0.1157
      2 N         139.0611  140.6739  165.8709 N.2     1  UNL1       -0.1790
      3 N         140.3014  141.1523  166.5656 N.pl3   1  UNL1       -0.2060
      4 C         140.7801  141.0047  167.9796 C.ar    1  UNL1        0.1052
      5 C         139.9474  140.2583  168.9793 C.ar    1  UNL1        0.0490
      6 C         140.4262  140.1108  170.3931 C.ar    1  UNL1        0.1416
      7 F         139.5935  139.3643  171.3929 F       1  UNL1       -0.2041
      8 C         141.7376  140.7096  170.8072 C.ar    1  UNL1        0.0328
      9 C         142.5703  141.4560  169.8075 C.ar    1  UNL1        0.0405
     10 C         142.0916  141.6036  168.3937 C.ar    1  UNL1        0.1537
     11 O         142.9243  142.3500  167.3939 O.3     1  UNL1       -0.4723
     12 C         142.4455  142.4976  165.9801 C.3     1  UNL1        0.2277
     13 C         141.1341  141.8987  165.5659 C.3     1  UNL1        0.1488
     14 C         140.4084  141.8816  164.2533 C.3     1  UNL1        0.0806
     15 C         141.5895  142.6695  163.7692 C.ar    1  UNL1       -0.0157
     16 C         142.6801  141.9880  162.9971 C.ar    1  UNL1       -0.0039
     17 C         143.8612  142.7759  162.5130 C.ar    1  UNL1       -0.0003
     18 C         143.9517  144.2452  162.8010 C.ar    1  UNL1       -0.0000
     19 C         142.8611  144.9266  163.5731 C.ar    1  UNL1       -0.0003
     20 C         141.6799  144.1388  164.0572 C.ar    1  UNL1       -0.0039
     21 C         138.1751  139.6237  162.5468 C.3     1  UNL1        0.0786
     22 C         138.0936  140.8641  163.3863 C.2     1  UNL1        0.1887
     23 O         136.9785  141.8439  163.1705 O.2     1  UNL1       -0.2900
     24 C         139.9296  142.0292  162.8393 C.3     1  UNL1        0.0130
     25 C         139.6798  143.3946  162.2708 C.3     1  UNL1        0.0181
     26 C         139.4109  143.5586  160.8043 C.3     1  UNL1        0.0722
     27 N         140.5537  143.7107  159.8446 N.3     1  UNL1       -0.2708
     28 C         140.7389  145.0819  159.2653 C.3     1  UNL1        0.0936
     29 C         141.7765  145.5525  158.2895 C.3     1  UNL1        0.1067
     30 N         142.8848  144.7682  157.6520 N.am    1  UNL1       -0.3029
     31 C         143.2295  143.3196  157.8329 C.2     1  UNL1        0.2239
     32 O         144.4087  142.8281  157.0468 O.2     1  UNL1       -0.2751
     33 C         142.5510  142.2975  158.6959 C.3     1  UNL1        0.1023
     34 C         141.3601  142.4716  159.5913 C.3     1  UNL1        0.0818
     35 H         143.4625  145.2706  157.0330 H       1  UNL1        0.1495
@<TRIPOS>BOND
     1    21    22    1
     2    22    23    2
     3    22     1    1
     4     1     2    2
     5     2     3    1
     6     3     4    1
     7     4     5   ar
     8     5     6   ar
     9     6     7    1
    10     6     8   ar
    11     8     9   ar
    12     9    10   ar
    13    10    11    1
    14    11    12    1
    15    13    12    1
    16    13    14    1
    17    14    24    1
    18    24    25    1
    19    25    26    1
    20    26    27    1
    21    27    28    1
    22    28    29    1
    23    29    30    1
    24    30    31   am
    25    31    32    2
    26    31    33    1
    27    33    34    1
    28    14    15    1
    29    15    16   ar
    30    16    17   ar
    31    17    18   ar
    32    18    19   ar
    33    19    20   ar
    34    14     1    1
    35    34    27    1
    36    20    15   ar
    37    13     3    1
    38    10     4   ar
    39    30    35    1
