@<TRIPOS>MOLECULE
*****
 33 38 0 0 0
SMALL
GASTEIGER

@<TRIPOS>ATOM
      1 C         142.5769  137.9215  157.4166 C.ar    1  UNL1        0.1028
      2 C         142.7587  138.5736  156.0782 C.ar    1  UNL1        0.0131
      3 C         142.4407  140.0292  155.9036 C.ar    1  UNL1       -0.0015
      4 C         141.9229  141.1117  156.8672 C.ar    1  UNL1        0.0035
      5 C         142.0975  139.7615  157.4968 C.ar    1  UNL1        0.0358
      6 C         142.0772  138.7247  158.5807 C.ar    1  UNL1        0.1545
      7 O         141.8649  138.1593  159.9536 O.3     1  UNL1       -0.4528
      8 C         141.4931  138.1511  161.4069 C.ar    1  UNL1        0.1450
      9 C         141.3284  137.1466  163.0205 C.ar    1  UNL1        0.0372
     10 C         140.9006  137.4026  164.4352 C.ar    1  UNL1       -0.0014
     11 C         140.4528  138.7737  164.8468 C.ar    1  UNL1       -0.0243
     12 C         140.5128  139.7269  163.6902 C.ar    1  UNL1       -0.0052
     13 C         141.0183  138.7016  162.7189 C.ar    1  UNL1        0.0345
     14 C         140.0536  141.0709  164.1727 C.3     1  UNL1        0.0980
     15 C         139.7098  140.9484  165.6276 C.3     1  UNL1        0.0290
     16 C         139.9565  139.5287  166.0443 C.3     1  UNL1        0.0281
     17 N         139.7105  142.5289  164.0931 N.am    1  UNL1       -0.2763
     18 C         139.2109  143.6690  164.9302 C.3     1  UNL1        0.0956
     19 C         139.1323  144.8858  164.0567 C.3     1  UNL1        0.0466
     20 C         139.5563  144.9159  162.3796 C.3     1  UNL1        0.1337
     21 N         139.7685  145.4814  161.0065 N.3     1  UNL1       -0.2863
     22 C         140.1404  145.4895  159.5534 C.3     1  UNL1        0.1151
     23 C         140.6152  144.9390  158.2413 C.ar    1  UNL1        0.0739
     24 C         140.4783  146.2419  157.5106 C.ar    1  UNL1        0.1147
     25 N         140.8993  146.0218  156.0878 N.ar    1  UNL1       -0.2226
     26 C         141.2962  144.5829  155.9391 C.ar    1  UNL1        0.1786
     27 N         141.1207  143.9138  157.2701 N.ar    1  UNL1       -0.3070
     28 C         141.5799  142.5698  156.7875 C.3     1  UNL1        0.1341
     29 C         139.5359  143.8792  163.4634 C.2     1  UNL1        0.2401
     30 O         139.2883  144.1369  164.1760 O.2     1  UNL1       -0.2734
     31 H         140.3920  146.2377  161.2889 H       1  UNL1        0.1240
     32 N         143.2129  135.0105  157.7656 N.1     1  UNL1       -0.1907
     33 C         142.8949  136.4660  157.5912 C.1     1  UNL1        0.1035
@<TRIPOS>BOND
     1    32    33    3
     2    33     1    1
     3     1     2   ar
     4     2     3   ar
     5     3     4   ar
     6     4     5   ar
     7     5     6   ar
     8     6     7    1
     9     7     8    1
    10     8     9   ar
    11     9    10   ar
    12    10    11   ar
    13    11    12   ar
    14    12    13   ar
    15    12    14    1
    16    14    15    1
    17    15    16    1
    18    14    17    1
    19    17    18    1
    20    18    19    1
    21    20    19    1
    22    20    21    1
    23    21    22    1
    24    22    23    1
    25    23    24   ar
    26    24    25   ar
    27    25    26   ar
    28    26    27   ar
    29    27    28    1
    30    20    29    1
    31    29    30    2
    32     6     1   ar
    33    13     8   ar
    34    29    17   am
    35    28     4    1
    36    16    11    1
    37    27    23   ar
    38    21    31    1
@<TRIPOS>MOLECULE
*****
 33 38 0 0 0
SMALL
GASTEIGER

@<TRIPOS>ATOM
      1 C         140.2133  144.6601  156.7597 C.ar    1  UNL1        0.1028
      2 C         140.5650  144.0414  155.4394 C.ar    1  UNL1        0.0131
      3 C         141.0756  142.6321  155.3837 C.ar    1  UNL1       -0.0015
      4 C         141.3488  141.5728  156.4662 C.ar    1  UNL1        0.0035
      5 C         140.8295  142.8754  156.9986 C.ar    1  UNL1        0.0358
      6 C         140.3721  143.8696  158.0245 C.ar    1  UNL1        0.1545
      7 O         140.0464  144.4038  159.3877 O.3     1  UNL1       -0.4528
      8 C         139.9019  144.3970  160.8808 C.ar    1  UNL1        0.1450
      9 C         139.4038  145.3545  162.4541 C.ar    1  UNL1        0.0372
     10 C         139.3526  145.0920  163.9300 C.ar    1  UNL1       -0.0014
     11 C         139.7774  143.7584  164.4697 C.ar    1  UNL1       -0.0243
     12 C         140.2135  142.8461  163.3618 C.ar    1  UNL1       -0.0052
     13 C         139.9605  143.8500  162.2762 C.ar    1  UNL1        0.0345
     14 C         140.6222  141.5382  163.9720 C.3     1  UNL1        0.0980
     15 C         140.4387  141.6422  165.4571 C.3     1  UNL1        0.0290
     16 C         139.9166  143.0144  165.7647 C.3     1  UNL1        0.0281
     17 N         141.1244  140.1254  164.0141 N.am    1  UNL1       -0.2763
     18 C         141.4294  139.0117  164.9715 C.3     1  UNL1        0.0956
     19 C         141.9273  137.8408  164.1771 C.3     1  UNL1        0.0466
     20 C         142.1011  137.8287  162.4558 C.3     1  UNL1        0.1337
     21 N         142.4268  137.2944  161.0925 N.3     1  UNL1       -0.2863
     22 C         142.5713  137.3013  159.5995 C.3     1  UNL1        0.1151
     23 C         142.5127  137.8482  158.2040 C.ar    1  UNL1        0.0739
     24 C         143.0258  136.5925  157.5638 C.ar    1  UNL1        0.1147
     25 N         143.0900  136.8204  156.0826 N.ar    1  UNL1       -0.2226
     26 C         142.6165  138.2168  155.8074 C.ar    1  UNL1        0.1786
     27 N         142.2597  138.8521  157.1185 N.ar    1  UNL1       -0.3070
     28 C         141.8510  140.1600  156.5083 C.3     1  UNL1        0.1341
     29 C         141.6438  138.8228  163.4817 C.2     1  UNL1        0.2401
     30 O         141.6617  138.5657  164.2360 O.2     1  UNL1       -0.2734
     31 H         141.8285  136.4700  161.1462 H       1  UNL1        0.1240
     32 N         139.1921  147.4788  156.8710 N.1     1  UNL1       -0.1907
     33 C         139.7026  146.0694  156.8154 C.1     1  UNL1        0.1035
@<TRIPOS>BOND
     1    32    33    3
     2    33     1    1
     3     1     2   ar
     4     2     3   ar
     5     3     4   ar
     6     4     5   ar
     7     5     6   ar
     8     6     7    1
     9     7     8    1
    10     8     9   ar
    11     9    10   ar
    12    10    11   ar
    13    11    12   ar
    14    12    13   ar
    15    12    14    1
    16    14    15    1
    17    15    16    1
    18    14    17    1
    19    17    18    1
    20    18    19    1
    21    20    19    1
    22    20    21    1
    23    21    22    1
    24    22    23    1
    25    23    24   ar
    26    24    25   ar
    27    25    26   ar
    28    26    27   ar
    29    27    28    1
    30    20    29    1
    31    29    30    2
    32     6     1   ar
    33    13     8   ar
    34    29    17   am
    35    28     4    1
    36    16    11    1
    37    27    23   ar
    38    21    31    1
@<TRIPOS>MOLECULE
*****
 33 38 0 0 0
SMALL
GASTEIGER

@<TRIPOS>ATOM
      1 C         143.0084  137.2481  157.1479 C.ar    1  UNL1        0.1028
      2 C         143.2690  137.7204  155.7483 C.ar    1  UNL1        0.0131
      3 C         143.1572  139.1788  155.4157 C.ar    1  UNL1       -0.0015
      4 C         142.8044  140.4207  156.2534 C.ar    1  UNL1        0.0035
      5 C         142.7928  139.1352  157.0261 C.ar    1  UNL1        0.0358
      6 C         142.6359  138.2342  158.2151 C.ar    1  UNL1        0.1545
      7 O         142.3575  137.8553  159.6394 O.3     1  UNL1       -0.4528
      8 C         142.0001  138.0560  161.0824 C.ar    1  UNL1        0.1450
      9 C         141.7091  137.2641  162.7937 C.ar    1  UNL1        0.0372
     10 C         141.3330  137.7285  164.1695 C.ar    1  UNL1       -0.0014
     11 C         141.0857  139.1852  164.4278 C.ar    1  UNL1       -0.0243
     12 C         141.2694  139.9904  163.1757 C.ar    1  UNL1       -0.0052
     13 C         141.6180  138.8057  162.3241 C.ar    1  UNL1        0.0345
     14 C         141.0075  141.4296  163.5074 C.3     1  UNL1        0.0980
     15 C         140.6618  141.5139  164.9645 C.3     1  UNL1        0.0290
     16 C         140.7101  140.1269  165.5335 C.3     1  UNL1        0.0281
     17 N         140.8720  142.9043  163.2687 N.am    1  UNL1       -0.2763
     18 C         140.5443  144.1866  163.9745 C.3     1  UNL1        0.0956
     19 C         140.6302  145.3013  162.9745 C.3     1  UNL1        0.0466
     20 C         141.0405  145.0908  161.3070 C.3     1  UNL1        0.1337
     21 N         141.3189  145.4697  159.8826 N.3     1  UNL1       -0.2863
     22 C         141.6763  145.2690  158.4397 C.3     1  UNL1        0.1151
     23 C         142.0584  144.5193  157.1979 C.ar    1  UNL1        0.0739
     24 C         142.0999  145.7422  156.3302 C.ar    1  UNL1        0.1147
     25 N         142.4742  145.3133  154.9424 N.ar    1  UNL1       -0.2226
     26 C         142.6639  143.8253  154.9524 C.ar    1  UNL1        0.1786
     27 N         142.4070  143.3346  156.3464 N.ar    1  UNL1       -0.3070
     28 C         142.6689  141.8954  156.0147 C.3     1  UNL1        0.1341
     29 C         140.8836  144.1899  162.4960 C.2     1  UNL1        0.2401
     30 O         140.6804  144.5551  163.1749 O.2     1  UNL1       -0.2734
     31 H         142.0447  146.1569  160.0862 H       1  UNL1        0.1240
     32 N         143.2321  134.3314  157.8130 N.1     1  UNL1       -0.1907
     33 C         143.1202  135.7897  157.4805 C.1     1  UNL1        0.1035
@<TRIPOS>BOND
     1    32    33    3
     2    33     1    1
     3     1     2   ar
     4     2     3   ar
     5     3     4   ar
     6     4     5   ar
     7     5     6   ar
     8     6     7    1
     9     7     8    1
    10     8     9   ar
    11     9    10   ar
    12    10    11   ar
    13    11    12   ar
    14    12    13   ar
    15    12    14    1
    16    14    15    1
    17    15    16    1
    18    14    17    1
    19    17    18    1
    20    18    19    1
    21    20    19    1
    22    20    21    1
    23    21    22    1
    24    22    23    1
    25    23    24   ar
    26    24    25   ar
    27    25    26   ar
    28    26    27   ar
    29    27    28    1
    30    20    29    1
    31    29    30    2
    32     6     1   ar
    33    13     8   ar
    34    29    17   am
    35    28     4    1
    36    16    11    1
    37    27    23   ar
    38    21    31    1
@<TRIPOS>MOLECULE
*****
 33 38 0 0 0
SMALL
GASTEIGER

@<TRIPOS>ATOM
      1 C         139.5422  146.9295  156.3042 C.ar    1  UNL1        0.1028
      2 C         139.6350  146.7542  154.8174 C.ar    1  UNL1        0.0131
      3 C         140.3130  145.5445  154.2457 C.ar    1  UNL1       -0.0015
      4 C         141.0004  144.3266  154.8881 C.ar    1  UNL1        0.0035
      5 C         140.4497  145.3126  155.8752 C.ar    1  UNL1        0.0358
      6 C         140.1274  145.8952  157.2194 C.ar    1  UNL1        0.1545
      7 O         140.0825  145.9853  158.7159 O.3     1  UNL1       -0.4528
      8 C         140.3218  145.5695  160.1372 C.ar    1  UNL1        0.1450
      9 C         140.1038  145.9699  161.9898 C.ar    1  UNL1        0.0372
     10 C         140.4651  145.3365  163.3006 C.ar    1  UNL1       -0.0014
     11 C         141.2003  144.0293  163.3245 C.ar    1  UNL1       -0.0243
     12 C         141.4698  143.5404  161.9323 C.ar    1  UNL1       -0.0052
     13 C         140.8090  144.7110  161.2665 C.ar    1  UNL1        0.0345
     14 C         142.2037  142.2361  162.0329 C.3     1  UNL1        0.0980
     15 C         142.3877  141.9188  163.4874 C.3     1  UNL1        0.0290
     16 C         141.7676  143.0270  164.2857 C.3     1  UNL1        0.0281
     17 N         142.8989  140.9965  161.5532 N.am    1  UNL1       -0.2763
     18 C         143.5930  139.7656  162.0562 C.3     1  UNL1        0.0956
     19 C         144.0381  138.9660  160.8678 C.3     1  UNL1        0.0466
     20 C         143.7719  139.4279  159.2219 C.3     1  UNL1        0.1337
     21 N         143.8168  139.3377  157.7252 N.3     1  UNL1       -0.2863
     22 C         143.5775  139.7536  156.3040 C.3     1  UNL1        0.1151
     23 C         143.0903  140.6121  155.1746 C.ar    1  UNL1        0.0739
     24 C         143.6011  139.6964  154.1019 C.ar    1  UNL1        0.1147
     25 N         143.2559  140.3011  152.7733 N.ar    1  UNL1       -0.2226
     26 C         142.5318  141.5904  153.0248 C.ar    1  UNL1        0.1786
     27 N         142.4295  141.7827  154.5089 N.ar    1  UNL1       -0.3070
     28 C         141.6956  143.0870  154.4083 C.3     1  UNL1        0.1341
     29 C         143.4496  140.0104  160.5661 C.2     1  UNL1        0.2401
     30 O         143.6941  139.5798  161.1907 O.2     1  UNL1       -0.2734
     31 H         143.3769  138.4204  157.6521 H       1  UNL1        0.1240
     32 N         138.1861  149.3490  157.4476 N.1     1  UNL1       -0.1907
     33 C         138.8641  148.1392  156.8759 C.1     1  UNL1        0.1035
@<TRIPOS>BOND
     1    32    33    3
     2    33     1    1
     3     1     2   ar
     4     2     3   ar
     5     3     4   ar
     6     4     5   ar
     7     5     6   ar
     8     6     7    1
     9     7     8    1
    10     8     9   ar
    11     9    10   ar
    12    10    11   ar
    13    11    12   ar
    14    12    13   ar
    15    12    14    1
    16    14    15    1
    17    15    16    1
    18    14    17    1
    19    17    18    1
    20    18    19    1
    21    20    19    1
    22    20    21    1
    23    21    22    1
    24    22    23    1
    25    23    24   ar
    26    24    25   ar
    27    25    26   ar
    28    26    27   ar
    29    27    28    1
    30    20    29    1
    31    29    30    2
    32     6     1   ar
    33    13     8   ar
    34    29    17   am
    35    28     4    1
    36    16    11    1
    37    27    23   ar
    38    21    31    1
@<TRIPOS>MOLECULE
*****
 33 38 0 0 0
SMALL
GASTEIGER

@<TRIPOS>ATOM
      1 C         143.2075  138.8399  155.5032 C.ar    1  UNL1        0.1028
      2 C         142.8053  139.3994  154.1709 C.ar    1  UNL1        0.0131
      3 C         142.1322  140.7376  154.0917 C.ar    1  UNL1       -0.0015
      4 C         141.7189  141.7676  155.1578 C.ar    1  UNL1        0.0035
      5 C         142.3806  140.5412  155.7127 C.ar    1  UNL1        0.0358
      6 C         142.9367  139.6184  156.7564 C.ar    1  UNL1        0.1545
      7 O         143.3024  139.1400  158.1301 O.3     1  UNL1       -0.4528
      8 C         143.4221  139.1787  159.6249 C.ar    1  UNL1        0.1450
      9 C         144.0059  138.3025  161.2161 C.ar    1  UNL1        0.0372
     10 C         144.0029  138.5838  162.6894 C.ar    1  UNL1       -0.0014
     11 C         143.4148  139.8628  163.2075 C.ar    1  UNL1       -0.0243
     12 C         142.8908  140.7060  162.0831 C.ar    1  UNL1       -0.0052
     13 C         143.2776  139.7286  161.0129 C.ar    1  UNL1        0.0345
     14 C         142.3207  141.9621  162.6723 C.3     1  UNL1        0.0980
     15 C         142.4923  141.8952  164.1609 C.3     1  UNL1        0.0290
     16 C         143.1685  140.5978  164.4918 C.3     1  UNL1        0.0281
     17 N         141.6540  143.3057  162.6909 N.am    1  UNL1       -0.2763
     18 C         141.2045  144.3848  163.6309 C.3     1  UNL1        0.0956
     19 C         140.5837  145.4804  162.8160 C.3     1  UNL1        0.0466
     20 C         140.4362  145.4549  161.0924 C.3     1  UNL1        0.1337
     21 N         140.0704  145.9333  159.7185 N.3     1  UNL1       -0.2863
     22 C         139.9507  145.8946  158.2238 C.3     1  UNL1        0.1151
     23 C         140.0953  145.3447  156.8357 C.ar    1  UNL1        0.0739
     24 C         139.4469  146.5243  156.1738 C.ar    1  UNL1        0.1147
     25 N         139.4330  146.2759  154.6946 N.ar    1  UNL1       -0.2226
     26 C         140.0727  144.9428  154.4423 C.ar    1  UNL1        0.1786
     27 N         140.4820  144.3673  155.7657 N.ar    1  UNL1       -0.3070
     28 C         141.0522  143.1112  155.1765 C.3     1  UNL1        0.1341
     29 C         140.9922  144.5322  162.1362 C.2     1  UNL1        0.2401
     30 O         140.9324  144.7928  162.8871 O.2     1  UNL1       -0.2734
     31 H         140.5660  146.8233  159.7711 H       1  UNL1        0.1240
     32 N         144.5537  136.1636  155.6616 N.1     1  UNL1       -0.1907
     33 C         143.8806  137.5017  155.5824 C.1     1  UNL1        0.1035
@<TRIPOS>BOND
     1    32    33    3
     2    33     1    1
     3     1     2   ar
     4     2     3   ar
     5     3     4   ar
     6     4     5   ar
     7     5     6   ar
     8     6     7    1
     9     7     8    1
    10     8     9   ar
    11     9    10   ar
    12    10    11   ar
    13    11    12   ar
    14    12    13   ar
    15    12    14    1
    16    14    15    1
    17    15    16    1
    18    14    17    1
    19    17    18    1
    20    18    19    1
    21    20    19    1
    22    20    21    1
    23    21    22    1
    24    22    23    1
    25    23    24   ar
    26    24    25   ar
    27    25    26   ar
    28    26    27   ar
    29    27    28    1
    30    20    29    1
    31    29    30    2
    32     6     1   ar
    33    13     8   ar
    34    29    17   am
    35    28     4    1
    36    16    11    1
    37    27    23   ar
    38    21    31    1
@<TRIPOS>MOLECULE
*****
 33 38 0 0 0
SMALL
GASTEIGER

@<TRIPOS>ATOM
      1 C         142.3860  136.2479  156.4640 C.ar    1  UNL1        0.1028
      2 C         141.8375  136.2320  155.0680 C.ar    1  UNL1        0.0131
      3 C         141.1736  137.4554  154.5090 C.ar    1  UNL1       -0.0015
      4 C         140.8977  138.8548  155.0870 C.ar    1  UNL1        0.0035
      5 C         141.6067  137.9293  156.0307 C.ar    1  UNL1        0.0358
      6 C         142.2707  137.4872  157.3010 C.ar    1  UNL1        0.1545
      7 O         142.7886  137.5961  158.7045 O.3     1  UNL1       -0.4528
      8 C         143.0816  138.2393  160.0276 C.ar    1  UNL1        0.1450
      9 C         143.8372  138.0633  161.7707 C.ar    1  UNL1        0.0372
     10 C         144.0084  138.9254  162.9861 C.ar    1  UNL1       -0.0014
     11 C         143.4978  140.3359  162.9830 C.ar    1  UNL1       -0.0243
     12 C         142.8554  140.6705  161.6695 C.ar    1  UNL1       -0.0052
     13 C         143.1050  139.3189  161.0687 C.ar    1  UNL1        0.0345
     14 C         142.3707  142.0883  161.7384 C.3     1  UNL1        0.0980
     15 C         142.7135  142.6300  163.0945 C.3     1  UNL1        0.0290
     16 C         143.4100  141.5470  163.8638 C.3     1  UNL1        0.0281
     17 N         141.7246  143.3566  161.2649 N.am    1  UNL1       -0.2763
     18 C         141.3987  144.7508  161.7121 C.3     1  UNL1        0.0956
     19 C         140.6988  145.4479  160.5835 C.3     1  UNL1        0.0466
     20 C         140.3517  144.7241  159.0508 C.3     1  UNL1        0.1337
     21 N         139.8337  144.6152  157.6473 N.3     1  UNL1       -0.2863
     22 C         139.5408  143.9720  156.3242 C.3     1  UNL1        0.1151
     23 C         139.5173  142.8925  155.2830 C.ar    1  UNL1        0.0739
     24 C         138.8086  143.7305  154.2605 C.ar    1  UNL1        0.1147
     25 N         138.6203  142.8968  153.0279 N.ar    1  UNL1       -0.2226
     26 C         139.2126  141.5436  153.2885 C.ar    1  UNL1        0.1786
     27 N         139.7669  141.5409  154.6823 N.ar    1  UNL1       -0.3070
     28 C         140.2517  140.1230  154.6135 C.3     1  UNL1        0.1341
     29 C         141.0157  144.2822  160.3212 C.2     1  UNL1        0.2401
     30 O         141.0462  144.8316  160.8979 O.2     1  UNL1       -0.2734
     31 H         140.3412  145.4179  157.2749 H       1  UNL1        0.1240
     32 N         143.7135  133.8010  157.5821 N.1     1  UNL1       -0.1907
     33 C         143.0498  135.0244  157.0230 C.1     1  UNL1        0.1035
@<TRIPOS>BOND
     1    32    33    3
     2    33     1    1
     3     1     2   ar
     4     2     3   ar
     5     3     4   ar
     6     4     5   ar
     7     5     6   ar
     8     6     7    1
     9     7     8    1
    10     8     9   ar
    11     9    10   ar
    12    10    11   ar
    13    11    12   ar
    14    12    13   ar
    15    12    14    1
    16    14    15    1
    17    15    16    1
    18    14    17    1
    19    17    18    1
    20    18    19    1
    21    20    19    1
    22    20    21    1
    23    21    22    1
    24    22    23    1
    25    23    24   ar
    26    24    25   ar
    27    25    26   ar
    28    26    27   ar
    29    27    28    1
    30    20    29    1
    31    29    30    2
    32     6     1   ar
    33    13     8   ar
    34    29    17   am
    35    28     4    1
    36    16    11    1
    37    27    23   ar
    38    21    31    1
@<TRIPOS>MOLECULE
*****
 33 38 0 0 0
SMALL
GASTEIGER

@<TRIPOS>ATOM
      1 C         143.1964  134.1707  156.7153 C.ar    1  UNL1        0.1028
      2 C         142.7074  133.5871  155.4230 C.ar    1  UNL1        0.0131
      3 C         141.6570  134.3029  154.6266 C.ar    1  UNL1       -0.0015
      4 C         140.8916  135.6199  154.8459 C.ar    1  UNL1        0.0035
      5 C         141.8728  135.2916  155.9319 C.ar    1  UNL1        0.0358
      6 C         142.6350  135.4702  157.2114 C.ar    1  UNL1        0.1545
      7 O         143.0620  136.1287  158.4896 O.3     1  UNL1       -0.4528
      8 C         143.0890  137.1668  159.5721 C.ar    1  UNL1        0.1450
      9 C         143.8356  137.7443  161.2302 C.ar    1  UNL1        0.0372
     10 C         143.6718  138.9075  162.1630 C.ar    1  UNL1       -0.0014
     11 C         142.6906  139.9952  161.8404 C.ar    1  UNL1       -0.0243
     12 C         141.9876  139.7159  160.5451 C.ar    1  UNL1       -0.0052
     13 C         142.7116  138.4265  160.2938 C.ar    1  UNL1        0.0345
     14 C         141.0270  140.8388  160.2876 C.3     1  UNL1        0.0980
     15 C         141.1363  141.8121  161.4237 C.3     1  UNL1        0.0290
     16 C         142.1644  141.2907  162.3834 C.3     1  UNL1        0.0281
     17 N         139.9761  141.6242  159.5604 N.am    1  UNL1       -0.2763
     18 C         139.1674  142.8837  159.6595 C.3     1  UNL1        0.0956
     19 C         138.2787  142.9600  158.4536 C.3     1  UNL1        0.0466
     20 C         138.2327  141.7739  157.1949 C.3     1  UNL1        0.1337
     21 N         137.8056  141.1154  155.9166 N.3     1  UNL1       -0.2863
     22 C         137.7787  140.0773  154.8342 C.3     1  UNL1        0.1151
     23 C         138.1560  138.8176  154.1124 C.ar    1  UNL1        0.0739
     24 C         137.2074  139.0462  152.9732 C.ar    1  UNL1        0.1147
     25 N         137.3452  137.8980  152.0179 N.ar    1  UNL1       -0.2226
     26 C         138.3790  136.9598  152.5667 C.ar    1  UNL1        0.1786
     27 N         138.8801  137.5282  153.8612 N.ar    1  UNL1       -0.3070
     28 C         139.8407  136.4053  154.1188 C.3     1  UNL1        0.1341
     29 C         138.9948  141.9526  158.4744 C.2     1  UNL1        0.2401
     30 O         138.8196  142.6129  158.8853 O.2     1  UNL1       -0.2734
     31 H         137.9971  141.9111  155.3079 H       1  UNL1        0.1240
     32 N         145.2972  132.7391  158.3082 N.1     1  UNL1       -0.1907
     33 C         144.2468  133.4549  157.5118 C.1     1  UNL1        0.1035
@<TRIPOS>BOND
     1    32    33    3
     2    33     1    1
     3     1     2   ar
     4     2     3   ar
     5     3     4   ar
     6     4     5   ar
     7     5     6   ar
     8     6     7    1
     9     7     8    1
    10     8     9   ar
    11     9    10   ar
    12    10    11   ar
    13    11    12   ar
    14    12    13   ar
    15    12    14    1
    16    14    15    1
    17    15    16    1
    18    14    17    1
    19    17    18    1
    20    18    19    1
    21    20    19    1
    22    20    21    1
    23    21    22    1
    24    22    23    1
    25    23    24   ar
    26    24    25   ar
    27    25    26   ar
    28    26    27   ar
    29    27    28    1
    30    20    29    1
    31    29    30    2
    32     6     1   ar
    33    13     8   ar
    34    29    17   am
    35    28     4    1
    36    16    11    1
    37    27    23   ar
    38    21    31    1
@<TRIPOS>MOLECULE
*****
 33 38 0 0 0
SMALL
GASTEIGER

@<TRIPOS>ATOM
      1 C         136.2386  139.9829  153.0077 C.ar    1  UNL1        0.1028
      2 C         136.1650  138.5198  152.6853 C.ar    1  UNL1        0.0131
      3 C         137.2148  137.5833  153.2057 C.ar    1  UNL1       -0.0015
      4 C         138.4677  137.7920  154.0748 C.ar    1  UNL1        0.0035
      5 C         137.6958  139.0480  153.7982 C.ar    1  UNL1        0.0358
      6 C         137.3621  140.5096  153.8505 C.ar    1  UNL1        0.1545
      7 O         137.5177  141.9540  154.2237 O.3     1  UNL1       -0.4528
      8 C         138.1387  143.1616  154.8610 C.ar    1  UNL1        0.1450
      9 C         138.0588  145.0442  155.1601 C.ar    1  UNL1        0.0372
     10 C         138.8674  146.0762  155.8888 C.ar    1  UNL1       -0.0014
     11 C         140.1051  145.6709  156.6330 C.ar    1  UNL1       -0.0243
     12 C         140.3426  144.1946  156.5143 C.ar    1  UNL1       -0.0052
     13 C         139.1307  143.9483  155.6653 C.ar    1  UNL1        0.0345
     14 C         141.5899  143.8628  157.2786 C.3     1  UNL1        0.0980
     15 C         142.1233  145.1341  157.8697 C.3     1  UNL1        0.0290
     16 C         141.2057  146.2516  157.4707 C.3     1  UNL1        0.0281
     17 N         142.6827  143.0035  157.8419 N.am    1  UNL1       -0.2763
     18 C         143.9254  143.0762  158.6788 C.3     1  UNL1        0.0956
     19 C         144.4890  141.6909  158.7931 C.3     1  UNL1        0.0466
     20 C         143.7883  140.2860  158.0662 C.3     1  UNL1        0.1337
     21 N         143.6327  138.8415  157.6930 N.3     1  UNL1       -0.2863
     22 C         143.0116  137.6339  157.0557 C.3     1  UNL1        0.1151
     23 C         142.0197  136.8471  156.2513 C.ar    1  UNL1        0.0739
     24 C         142.7114  135.5332  156.4640 C.ar    1  UNL1        0.1147
     25 N         141.9271  134.4750  155.7464 N.ar    1  UNL1       -0.2226
     26 C         140.7505  135.1348  155.0903 C.ar    1  UNL1        0.1786
     27 N         140.8078  136.6009  155.4024 N.ar    1  UNL1       -0.3070
     28 C         139.5605  136.9327  154.6381 C.3     1  UNL1        0.1341
     29 C         143.4547  141.7475  158.1185 C.2     1  UNL1        0.2401
     30 O         143.9616  142.1971  158.5384 O.2     1  UNL1       -0.2734
     31 H         143.6466  138.4748  158.6447 H       1  UNL1        0.1240
     32 N         134.1389  141.8558  151.9669 N.1     1  UNL1       -0.1907
     33 C         135.1888  140.9194  152.4873 C.1     1  UNL1        0.1035
@<TRIPOS>BOND
     1    32    33    3
     2    33     1    1
     3     1     2   ar
     4     2     3   ar
     5     3     4   ar
     6     4     5   ar
     7     5     6   ar
     8     6     7    1
     9     7     8    1
    10     8     9   ar
    11     9    10   ar
    12    10    11   ar
    13    11    12   ar
    14    12    13   ar
    15    12    14    1
    16    14    15    1
    17    15    16    1
    18    14    17    1
    19    17    18    1
    20    18    19    1
    21    20    19    1
    22    20    21    1
    23    21    22    1
    24    22    23    1
    25    23    24   ar
    26    24    25   ar
    27    25    26   ar
    28    26    27   ar
    29    27    28    1
    30    20    29    1
    31    29    30    2
    32     6     1   ar
    33    13     8   ar
    34    29    17   am
    35    28     4    1
    36    16    11    1
    37    27    23   ar
    38    21    31    1
@<TRIPOS>MOLECULE
*****
 33 38 0 0 0
SMALL
GASTEIGER

@<TRIPOS>ATOM
      1 C         140.5729  145.4151  154.9576 C.ar    1  UNL1        0.1028
      2 C         140.1313  146.6127  155.7454 C.ar    1  UNL1        0.0131
      3 C         140.0431  146.5359  157.2409 C.ar    1  UNL1       -0.0015
      4 C         140.3264  145.4099  158.2510 C.ar    1  UNL1        0.0035
      5 C         140.5575  145.0239  156.8201 C.ar    1  UNL1        0.0358
      6 C         140.9265  144.1406  155.6652 C.ar    1  UNL1        0.1545
      7 O         141.3772  142.8946  154.9623 O.3     1  UNL1       -0.4528
      8 C         141.8411  141.4753  154.8183 C.ar    1  UNL1        0.1450
      9 C         142.3784  140.0687  153.6467 C.ar    1  UNL1        0.0372
     10 C         142.8241  138.6422  153.7747 C.ar    1  UNL1       -0.0014
     11 C         142.9249  138.0067  155.1297 C.ar    1  UNL1       -0.0243
     12 C         142.5345  138.9754  156.2064 C.ar    1  UNL1       -0.0052
     13 C         142.2475  140.0992  155.2552 C.ar    1  UNL1        0.0345
     14 C         142.6585  138.2752  157.5271 C.3     1  UNL1        0.0980
     15 C         143.1255  136.8737  157.2667 C.3     1  UNL1        0.0290
     16 C         143.2901  136.7077  155.7850 C.3     1  UNL1        0.0281
     17 N         142.6006  138.1051  159.0163 N.am    1  UNL1       -0.2763
     18 C         142.8423  137.0930  160.0967 C.3     1  UNL1        0.0956
     19 C         142.5364  137.7401  161.4149 C.3     1  UNL1        0.0466
     20 C         142.0006  139.3744  161.6021 C.3     1  UNL1        0.1337
     21 N         141.5498  140.6205  162.3051 N.3     1  UNL1       -0.2863
     22 C         141.0859  142.0397  162.4490 C.3     1  UNL1        0.1151
     23 C         140.6795  143.4160  162.0122 C.ar    1  UNL1        0.0739
     24 C         140.4173  143.9087  163.4045 C.ar    1  UNL1        0.1147
     25 N         139.9682  145.3370  163.3137 N.ar    1  UNL1       -0.2226
     26 C         139.9529  145.7270  161.8654 C.ar    1  UNL1        0.1786
     27 N         140.3925  144.5397  161.0610 N.ar    1  UNL1       -0.3070
     28 C         140.2685  145.2399  159.7402 C.3     1  UNL1        0.1341
     29 C         142.3695  138.4911  160.4473 C.2     1  UNL1        0.2401
     30 O         142.5912  137.7508  160.6427 O.2     1  UNL1       -0.2734
     31 H         142.3544  140.6990  162.9271 H       1  UNL1        0.1240
     32 N         140.7492  145.5688  151.9668 N.1     1  UNL1       -0.1907
     33 C         140.6611  145.4919  153.4622 C.1     1  UNL1        0.1035
@<TRIPOS>BOND
     1    32    33    3
     2    33     1    1
     3     1     2   ar
     4     2     3   ar
     5     3     4   ar
     6     4     5   ar
     7     5     6   ar
     8     6     7    1
     9     7     8    1
    10     8     9   ar
    11     9    10   ar
    12    10    11   ar
    13    11    12   ar
    14    12    13   ar
    15    12    14    1
    16    14    15    1
    17    15    16    1
    18    14    17    1
    19    17    18    1
    20    18    19    1
    21    20    19    1
    22    20    21    1
    23    21    22    1
    24    22    23    1
    25    23    24   ar
    26    24    25   ar
    27    25    26   ar
    28    26    27   ar
    29    27    28    1
    30    20    29    1
    31    29    30    2
    32     6     1   ar
    33    13     8   ar
    34    29    17   am
    35    28     4    1
    36    16    11    1
    37    27    23   ar
    38    21    31    1
