@<TRIPOS>MOLECULE
*****
 44 49 0 0 0
SMALL
GASTEIGER

@<TRIPOS>ATOM
      1 N         138.8429  142.2604  158.4879 N.am    1  UNL1       -0.2222
      2 C         138.8659  141.6885  159.8745 C.2     1  UNL1        0.3219
      3 O         138.3304  140.3487  160.2846 O.2     1  UNL1       -0.2512
      4 N         139.5185  142.6917  160.7789 N.am    1  UNL1       -0.1907
      5 C         139.8987  143.8835  159.9513 C.2     1  UNL1        0.2529
      6 O         140.5773  145.1241  160.4517 O.2     1  UNL1       -0.2724
      7 C         139.4812  143.6170  158.5354 C.3     1  UNL1        0.1391
      8 C         139.0100  143.2119  157.1702 C.3     1  UNL1        0.0449
      9 C         139.1978  144.1391  156.0062 C.3     1  UNL1        0.0746
     10 N         139.8568  145.4715  156.2074 N.3     1  UNL1       -0.2676
     11 C         140.3280  145.8766  157.5726 C.3     1  UNL1        0.0746
     12 C         140.1402  144.9494  158.7366 C.3     1  UNL1        0.0449
     13 C         136.2840  141.1458  155.6667 C.ar    1  UNL1        0.2293
     14 C         136.8465  141.8133  156.8865 C.ar    1  UNL1        0.0924
     15 C         138.2803  141.5929  157.2681 C.ar    1  UNL1        0.1453
     16 N         139.1516  140.7050  156.4299 N.ar    1  UNL1       -0.2084
     17 C         138.5891  140.0374  155.2101 C.ar    1  UNL1        0.2027
     18 N         137.1552  140.2579  154.8285 N.ar    1  UNL1       -0.1892
     19 C         133.7807  140.4726  155.8397 C.3     1  UNL1        0.2542
     20 O         134.8502  141.3662  155.2850 O.3     1  UNL1       -0.4560
     21 C         139.7501  142.5312  162.2521 C.ar    1  UNL1        0.0622
     22 C         141.0696  142.0232  162.7529 C.ar    1  UNL1        0.0154
     23 C         141.3012  141.8627  164.2262 C.ar    1  UNL1        0.0013
     24 C         140.2133  142.2101  165.1987 C.ar    1  UNL1        0.0001
     25 C         138.8937  142.7181  164.6979 C.ar    1  UNL1        0.0013
     26 C         138.6621  142.8785  163.2246 C.ar    1  UNL1        0.0154
     27 C         140.4449  142.0496  166.6720 C.ar    1  UNL1        0.0008
     28 C         140.8551  140.7174  167.2260 C.ar    1  UNL1        0.0001
     29 C         141.0867  140.5569  168.6993 C.ar    1  UNL1        0.0020
     30 C         140.9080  141.7287  169.6186 C.ar    1  UNL1        0.0246
     31 C         140.4978  143.0609  169.0646 C.ar    1  UNL1        0.0587
     32 CL        140.3191  144.2325  169.9840 Cl      1  UNL1       -0.0822
     33 C         140.2662  143.2214  167.5914 C.ar    1  UNL1        0.0114
     34 C         141.1396  141.5681  171.0919 C.2     1  UNL1        0.0737
     35 O         140.3257  140.5819  171.8760 O.co2   1  UNL1       -0.5446
     36 O         142.1852  142.3939  171.7811 O.co2   1  UNL1       -0.5446
     37 C         140.0446  146.3988  155.0433 C.3     1  UNL1        0.1183
     38 C         139.5963  147.8268  155.1421 C.ar    1  UNL1        0.0712
     39 N         138.7727  148.2751  156.3128 N.ar    1  UNL1       -0.2471
     40 C         138.3243  149.7032  156.4115 C.ar    1  UNL1        0.0985
     41 C         138.6997  150.6828  155.3394 C.ar    1  UNL1        0.0203
     42 C         139.5234  150.2345  154.1687 C.ar    1  UNL1       -0.0015
     43 C         139.9717  148.8065  154.0700 C.ar    1  UNL1       -0.0069
     44 C         140.7953  148.3582  152.8993 C.3     1  UNL1        0.0323
@<TRIPOS>UNITY_ATOM_ATTR
35 1
charge -1
@<TRIPOS>BOND
     1    19    20    1
     2    20    13    1
     3    13    14   ar
     4    14    15   ar
     5    15     1    1
     6     1     2   am
     7     2     3    2
     8     2     4   am
     9     4    21    1
    10    21    22   ar
    11    22    23   ar
    12    23    24   ar
    13    24    27    1
    14    27    28   ar
    15    28    29   ar
    16    29    30   ar
    17    30    34    1
    18    34    35   ar
    19    34    36   ar
    20    30    31   ar
    21    31    32    1
    22    31    33   ar
    23    24    25   ar
    24    25    26   ar
    25     4     5   am
    26     5     6    2
    27     5     7    1
    28     7     8    1
    29     8     9    1
    30     9    10    1
    31    10    37    1
    32    37    38    1
    33    38    39   ar
    34    39    40   ar
    35    40    41   ar
    36    41    42   ar
    37    42    43   ar
    38    43    44    1
    39    10    11    1
    40    11    12    1
    41    15    16   ar
    42    16    17   ar
    43    17    18   ar
    44    18    13   ar
    45     7     1    1
    46    43    38   ar
    47    26    21   ar
    48    12     7    1
    49    33    27   ar
@<TRIPOS>MOLECULE
*****
 44 49 0 0 0
SMALL
GASTEIGER

@<TRIPOS>ATOM
      1 N         143.6850  140.9449  158.5199 N.am    1  UNL1       -0.2222
      2 C         143.5616  141.5372  159.8926 C.2     1  UNL1        0.3219
      3 O         143.8364  142.9639  160.2652 O.2     1  UNL1       -0.2512
      4 N         143.1152  140.4521  160.8272 N.am    1  UNL1       -0.1907
      5 C         142.9627  139.1893  160.0322 C.2     1  UNL1        0.2529
      6 O         142.5334  137.8560  160.5689 O.2     1  UNL1       -0.2724
      7 C         143.3148  139.4938  158.6062 C.3     1  UNL1        0.1391
      8 C         143.6938  139.9458  157.2271 C.3     1  UNL1        0.0449
      9 C         143.6784  138.9705  156.0876 C.3     1  UNL1        0.0746
     10 N         143.2842  137.5432  156.3272 N.3     1  UNL1       -0.2676
     11 C         142.9053  137.0912  157.7063 C.3     1  UNL1        0.0746
     12 C         142.9206  138.0665  158.8458 C.3     1  UNL1        0.0449
     13 C         145.9816  142.5953  155.7358 C.ar    1  UNL1        0.2293
     14 C         145.5618  141.8647  156.9768 C.ar    1  UNL1        0.0924
     15 C         144.1048  141.6754  157.2790 C.ar    1  UNL1        0.1453
     16 N         143.0676  142.2166  156.3401 N.ar    1  UNL1       -0.2084
     17 C         143.4873  142.9471  155.0992 C.ar    1  UNL1        0.2027
     18 N         144.9444  143.1365  154.7970 N.ar    1  UNL1       -0.1892
     19 C         148.4103  141.6734  155.6998 C.3     1  UNL1        0.2542
     20 O         147.4385  142.7846  155.4335 O.3     1  UNL1       -0.4560
     21 C         142.8652  140.6034  162.2984 C.ar    1  UNL1        0.0622
     22 C         141.6732  141.3753  162.7811 C.ar    1  UNL1        0.0154
     23 C         141.4232  141.5265  164.2524 C.ar    1  UNL1        0.0013
     24 C         142.3653  140.9059  165.2410 C.ar    1  UNL1        0.0001
     25 C         143.5574  140.1339  164.7582 C.ar    1  UNL1        0.0013
     26 C         143.8073  139.9827  163.2869 C.ar    1  UNL1        0.0154
     27 C         142.1153  141.0571  166.7123 C.ar    1  UNL1        0.0008
     28 C         142.6278  140.0230  167.6703 C.ar    1  UNL1        0.0001
     29 C         142.3778  140.1742  169.1416 C.ar    1  UNL1        0.0020
     30 C         141.6153  141.3597  169.6547 C.ar    1  UNL1        0.0246
     31 C         141.1028  142.3938  168.6967 C.ar    1  UNL1        0.0587
     32 CL        140.3403  143.5792  169.2099 Cl      1  UNL1       -0.0822
     33 C         141.3527  142.2426  167.2255 C.ar    1  UNL1        0.0114
     34 C         141.3653  141.5109  171.1260 C.2     1  UNL1        0.0737
     35 O         142.1297  142.5318  171.9156 O.co2   1  UNL1       -0.5446
     36 O         140.3508  140.6412  171.8077 O.co2   1  UNL1       -0.5446
     37 C         143.2689  136.5679  155.1876 C.3     1  UNL1        0.1183
     38 C         142.9527  135.1237  155.4406 C.ar    1  UNL1        0.0712
     39 N         143.9661  134.2392  156.1046 N.ar    1  UNL1       -0.2471
     40 C         143.6499  132.7949  156.3576 C.ar    1  UNL1        0.0985
     41 C         142.3203  132.2351  155.9468 C.ar    1  UNL1        0.0203
     42 C         141.3069  133.1195  155.2828 C.ar    1  UNL1       -0.0015
     43 C         141.6231  134.5638  155.0298 C.ar    1  UNL1       -0.0069
     44 C         140.6097  135.4483  154.3658 C.3     1  UNL1        0.0323
@<TRIPOS>UNITY_ATOM_ATTR
35 1
charge -1
@<TRIPOS>BOND
     1    19    20    1
     2    20    13    1
     3    13    14   ar
     4    14    15   ar
     5    15     1    1
     6     1     2   am
     7     2     3    2
     8     2     4   am
     9     4    21    1
    10    21    22   ar
    11    22    23   ar
    12    23    24   ar
    13    24    27    1
    14    27    28   ar
    15    28    29   ar
    16    29    30   ar
    17    30    34    1
    18    34    35   ar
    19    34    36   ar
    20    30    31   ar
    21    31    32    1
    22    31    33   ar
    23    24    25   ar
    24    25    26   ar
    25     4     5   am
    26     5     6    2
    27     5     7    1
    28     7     8    1
    29     8     9    1
    30     9    10    1
    31    10    37    1
    32    37    38    1
    33    38    39   ar
    34    39    40   ar
    35    40    41   ar
    36    41    42   ar
    37    42    43   ar
    38    43    44    1
    39    10    11    1
    40    11    12    1
    41    15    16   ar
    42    16    17   ar
    43    17    18   ar
    44    18    13   ar
    45     7     1    1
    46    43    38   ar
    47    26    21   ar
    48    12     7    1
    49    33    27   ar
@<TRIPOS>MOLECULE
*****
 44 49 0 0 0
SMALL
GASTEIGER

@<TRIPOS>ATOM
      1 N         138.9958  142.3702  158.5107 N.am    1  UNL1       -0.2222
      2 C         139.0266  141.7973  159.8968 C.2     1  UNL1        0.3219
      3 O         138.5263  140.4426  160.3022 O.2     1  UNL1       -0.2512
      4 N         139.6456  142.8172  160.8061 N.am    1  UNL1       -0.1907
      5 C         139.9973  144.0202  159.9821 C.2     1  UNL1        0.2529
      6 O         140.6381  145.2786  160.4879 O.2     1  UNL1       -0.2724
      7 C         139.5957  143.7440  158.5635 C.3     1  UNL1        0.1391
      8 C         139.1440  143.3276  157.1951 C.3     1  UNL1        0.0449
      9 C         139.3127  144.2612  156.0333 C.3     1  UNL1        0.0746
     10 N         139.9331  145.6112  156.2399 N.3     1  UNL1       -0.2676
     11 C         140.3848  146.0276  157.6083 C.3     1  UNL1        0.0746
     12 C         140.2161  145.0939  158.7701 C.3     1  UNL1        0.0449
     13 C         136.4637  141.1059  155.7286 C.ar    1  UNL1        0.2293
     14 C         137.0003  141.7872  156.9525 C.ar    1  UNL1        0.0924
     15 C         138.4592  141.6888  157.2869 C.ar    1  UNL1        0.1453
     16 N         139.3816  140.9090  156.3974 N.ar    1  UNL1       -0.2084
     17 C         138.8451  140.2276  155.1736 C.ar    1  UNL1        0.2027
     18 N         137.3861  140.3260  154.8392 N.ar    1  UNL1       -0.1892
     19 C         134.1750  139.9595  155.2846 C.3     1  UNL1        0.2542
     20 O         135.0049  141.2042  155.3941 O.3     1  UNL1       -0.4560
     21 C         139.8729  142.6613  162.2805 C.ar    1  UNL1        0.0622
     22 C         138.9927  143.3852  163.2558 C.ar    1  UNL1        0.0154
     23 C         139.2201  143.2293  164.7302 C.ar    1  UNL1        0.0013
     24 C         140.3276  142.3495  165.2294 C.ar    1  UNL1        0.0001
     25 C         141.2079  141.6255  164.2541 C.ar    1  UNL1        0.0013
     26 C         140.9804  141.7814  162.7797 C.ar    1  UNL1        0.0154
     27 C         140.5550  142.1936  166.7039 C.ar    1  UNL1        0.0008
     28 C         140.1204  143.2749  167.6482 C.ar    1  UNL1        0.0001
     29 C         140.3477  143.1190  169.1227 C.ar    1  UNL1        0.0020
     30 C         141.0097  141.8817  169.6527 C.ar    1  UNL1        0.0246
     31 C         141.4443  140.8004  168.7084 C.ar    1  UNL1        0.0587
     32 CL        142.1063  139.5632  169.2385 Cl      1  UNL1       -0.0822
     33 C         141.2170  140.9563  167.2340 C.ar    1  UNL1        0.0114
     34 C         141.2371  141.7258  171.1272 C.2     1  UNL1        0.0737
     35 O         142.2333  142.6004  171.8291 O.co2   1  UNL1       -0.5446
     36 O         140.4681  140.6953  171.8998 O.co2   1  UNL1       -0.5446
     37 C         140.1018  146.5448  155.0780 C.3     1  UNL1        0.1183
     38 C         139.6073  147.9577  155.1732 C.ar    1  UNL1        0.0712
     39 N         138.7907  148.3885  156.3554 N.ar    1  UNL1       -0.2471
     40 C         138.2962  149.8015  156.4507 C.ar    1  UNL1        0.0985
     41 C         138.6182  150.7836  155.3637 C.ar    1  UNL1        0.0203
     42 C         139.4348  150.3529  154.1815 C.ar    1  UNL1       -0.0015
     43 C         139.9293  148.9400  154.0862 C.ar    1  UNL1       -0.0069
     44 C         140.7459  148.5093  152.9040 C.3     1  UNL1        0.0323
@<TRIPOS>UNITY_ATOM_ATTR
35 1
charge -1
@<TRIPOS>BOND
     1    19    20    1
     2    20    13    1
     3    13    14   ar
     4    14    15   ar
     5    15     1    1
     6     1     2   am
     7     2     3    2
     8     2     4   am
     9     4    21    1
    10    21    22   ar
    11    22    23   ar
    12    23    24   ar
    13    24    27    1
    14    27    28   ar
    15    28    29   ar
    16    29    30   ar
    17    30    34    1
    18    34    35   ar
    19    34    36   ar
    20    30    31   ar
    21    31    32    1
    22    31    33   ar
    23    24    25   ar
    24    25    26   ar
    25     4     5   am
    26     5     6    2
    27     5     7    1
    28     7     8    1
    29     8     9    1
    30     9    10    1
    31    10    37    1
    32    37    38    1
    33    38    39   ar
    34    39    40   ar
    35    40    41   ar
    36    41    42   ar
    37    42    43   ar
    38    43    44    1
    39    10    11    1
    40    11    12    1
    41    15    16   ar
    42    16    17   ar
    43    17    18   ar
    44    18    13   ar
    45     7     1    1
    46    43    38   ar
    47    26    21   ar
    48    12     7    1
    49    33    27   ar
@<TRIPOS>MOLECULE
*****
 44 49 0 0 0
SMALL
GASTEIGER

@<TRIPOS>ATOM
      1 N         143.8476  140.8912  158.5213 N.am    1  UNL1       -0.2222
      2 C         143.7512  141.4711  159.9014 C.2     1  UNL1        0.3219
      3 O         144.1429  142.8624  160.3025 O.2     1  UNL1       -0.2512
      4 N         143.1943  140.4154  160.8099 N.am    1  UNL1       -0.1907
      5 C         142.9465  139.1831  159.9914 C.2     1  UNL1        0.2529
      6 O         142.3922  137.8847  160.4982 O.2     1  UNL1       -0.2724
      7 C         143.3503  139.4771  158.5769 C.3     1  UNL1        0.1391
      8 C         143.7928  139.9150  157.2122 C.3     1  UNL1        0.0449
      9 C         143.7132  138.9622  156.0564 C.3     1  UNL1        0.0746
     10 N         143.1911  137.5716  156.2653 N.3     1  UNL1       -0.2676
     11 C         142.7486  137.1338  157.6300 C.3     1  UNL1        0.0746
     12 C         142.8282  138.0865  158.7858 C.3     1  UNL1        0.0449
     13 C         143.9121  143.1061  155.2289 C.ar    1  UNL1        0.2293
     14 C         143.4070  142.3965  156.4501 C.ar    1  UNL1        0.0924
     15 C         144.3527  141.6008  157.3001 C.ar    1  UNL1        0.1453
     16 N         145.8035  141.5146  156.9288 N.ar    1  UNL1       -0.2084
     17 C         146.3086  142.2242  155.7077 C.ar    1  UNL1        0.2027
     18 N         145.3629  143.0199  154.8577 N.ar    1  UNL1       -0.1892
     19 C         142.2841  145.1110  154.9466 C.3     1  UNL1        0.2542
     20 O         142.9665  143.9018  154.3789 O.3     1  UNL1       -0.4560
     21 C         142.9313  140.5657  162.2789 C.ar    1  UNL1        0.0622
     22 C         141.7515  141.3620  162.7520 C.ar    1  UNL1        0.0154
     23 C         141.4885  141.5122  164.2212 C.ar    1  UNL1        0.0013
     24 C         142.4053  140.8662  165.2172 C.ar    1  UNL1        0.0001
     25 C         143.5852  140.0698  164.7440 C.ar    1  UNL1        0.0013
     26 C         143.8481  139.9196  163.2749 C.ar    1  UNL1        0.0154
     27 C         142.1423  141.0164  166.6863 C.ar    1  UNL1        0.0008
     28 C         142.6553  139.9870  167.6492 C.ar    1  UNL1        0.0001
     29 C         142.3923  140.1373  169.1183 C.ar    1  UNL1        0.0020
     30 C         141.6163  141.3170  169.6244 C.ar    1  UNL1        0.0246
     31 C         141.1034  142.3464  168.6615 C.ar    1  UNL1        0.0587
     32 CL        140.3275  143.5261  169.1678 Cl      1  UNL1       -0.0822
     33 C         141.3664  142.1962  167.1925 C.ar    1  UNL1        0.0114
     34 C         141.3534  141.4673  171.0935 C.2     1  UNL1        0.0737
     35 O         140.3778  140.5562  171.7779 O.co2   1  UNL1       -0.5446
     36 O         142.0660  142.5286  171.8783 O.co2   1  UNL1       -0.5446
     37 C         143.1116  136.6189  155.1094 C.3     1  UNL1        0.1183
     38 C         142.8715  135.1589  155.3560 C.ar    1  UNL1        0.0712
     39 N         143.9798  134.2945  155.8797 N.ar    1  UNL1       -0.2471
     40 C         143.7397  132.8345  156.1263 C.ar    1  UNL1        0.0985
     41 C         142.3912  132.2390  155.8492 C.ar    1  UNL1        0.0203
     42 C         141.2828  133.1034  155.3255 C.ar    1  UNL1       -0.0015
     43 C         141.5229  134.5633  155.0789 C.ar    1  UNL1       -0.0069
     44 C         140.4145  135.4277  154.5552 C.3     1  UNL1        0.0323
@<TRIPOS>UNITY_ATOM_ATTR
35 1
charge -1
@<TRIPOS>BOND
     1    19    20    1
     2    20    13    1
     3    13    14   ar
     4    14    15   ar
     5    15     1    1
     6     1     2   am
     7     2     3    2
     8     2     4   am
     9     4    21    1
    10    21    22   ar
    11    22    23   ar
    12    23    24   ar
    13    24    27    1
    14    27    28   ar
    15    28    29   ar
    16    29    30   ar
    17    30    34    1
    18    34    35   ar
    19    34    36   ar
    20    30    31   ar
    21    31    32    1
    22    31    33   ar
    23    24    25   ar
    24    25    26   ar
    25     4     5   am
    26     5     6    2
    27     5     7    1
    28     7     8    1
    29     8     9    1
    30     9    10    1
    31    10    37    1
    32    37    38    1
    33    38    39   ar
    34    39    40   ar
    35    40    41   ar
    36    41    42   ar
    37    42    43   ar
    38    43    44    1
    39    10    11    1
    40    11    12    1
    41    15    16   ar
    42    16    17   ar
    43    17    18   ar
    44    18    13   ar
    45     7     1    1
    46    43    38   ar
    47    26    21   ar
    48    12     7    1
    49    33    27   ar
@<TRIPOS>MOLECULE
*****
 44 49 0 0 0
SMALL
GASTEIGER

@<TRIPOS>ATOM
      1 N         142.1223  138.5654  158.6213 N.am    1  UNL1       -0.2222
      2 C         141.5612  138.6011  160.0121 C.2     1  UNL1        0.3219
      3 O         140.4908  137.7011  160.5544 O.2     1  UNL1       -0.2512
      4 N         142.2587  139.6950  160.7652 N.am    1  UNL1       -0.1907
      5 C         143.2506  140.3352  159.8400 C.2     1  UNL1        0.2529
      6 O         144.1662  141.4737  160.1800 O.2     1  UNL1       -0.2724
      7 C         143.1664  139.6371  158.5150 C.3     1  UNL1        0.1391
      8 C         142.9706  138.8487  157.2540 C.3     1  UNL1        0.0449
      9 C         143.7870  139.1665  156.0365 C.3     1  UNL1        0.0746
     10 N         144.7992  140.2727  156.0799 N.3     1  UNL1       -0.2676
     11 C         144.9949  141.0611  157.3409 C.3     1  UNL1        0.0746
     12 C         144.1785  140.7433  158.5584 C.3     1  UNL1        0.0449
     13 C         142.0608  135.4066  156.2197 C.ar    1  UNL1        0.2293
     14 C         142.4718  136.3486  157.3122 C.ar    1  UNL1        0.0924
     15 C         141.7113  137.6233  157.5288 C.ar    1  UNL1        0.1453
     16 N         140.5399  137.9559  156.6529 N.ar    1  UNL1       -0.2084
     17 C         140.1289  137.0139  155.5605 C.ar    1  UNL1        0.2027
     18 N         140.8894  135.7391  155.3438 N.ar    1  UNL1       -0.1892
     19 C         143.4987  133.4571  157.1588 C.3     1  UNL1        0.2542
     20 O         142.8212  134.1319  156.0030 O.3     1  UNL1       -0.4560
     21 C         142.0081  140.0808  162.1929 C.ar    1  UNL1        0.0622
     22 C         141.3791  141.4045  162.5127 C.ar    1  UNL1        0.0154
     23 C         141.1285  141.7903  163.9405 C.ar    1  UNL1        0.0013
     24 C         141.5069  140.8525  165.0483 C.ar    1  UNL1        0.0001
     25 C         142.1359  139.5287  164.7285 C.ar    1  UNL1        0.0013
     26 C         142.3864  139.1430  163.3007 C.ar    1  UNL1        0.0154
     27 C         141.2563  141.2383  166.4760 C.ar    1  UNL1        0.0008
     28 C         142.0741  142.3213  167.1149 C.ar    1  UNL1        0.0001
     29 C         141.8235  142.7072  168.5426 C.ar    1  UNL1        0.0020
     30 C         140.7550  142.0099  169.3314 C.ar    1  UNL1        0.0246
     31 C         139.9372  140.9269  168.6925 C.ar    1  UNL1        0.0587
     32 CL        138.8688  140.2297  169.4814 Cl      1  UNL1       -0.0822
     33 C         140.1878  140.5410  167.2649 C.ar    1  UNL1        0.0114
     34 C         140.5045  142.3957  170.7591 C.2     1  UNL1        0.0737
     35 O         139.3059  143.2256  171.1125 O.co2   1  UNL1       -0.5446
     36 O         141.4525  141.9517  171.8335 O.co2   1  UNL1       -0.5446
     37 C         145.6157  140.5905  154.8623 C.3     1  UNL1        0.1183
     38 C         145.8022  142.0163  154.4356 C.ar    1  UNL1        0.0712
     39 N         144.6721  142.7589  153.7864 N.ar    1  UNL1       -0.2471
     40 C         144.8587  144.1848  153.3596 C.ar    1  UNL1        0.0985
     41 C         146.1753  144.8681  153.5821 C.ar    1  UNL1        0.0203
     42 C         147.3054  144.1255  154.2313 C.ar    1  UNL1       -0.0015
     43 C         147.1189  142.6997  154.6580 C.ar    1  UNL1       -0.0069
     44 C         148.2490  141.9572  155.3073 C.3     1  UNL1        0.0323
@<TRIPOS>UNITY_ATOM_ATTR
35 1
charge -1
@<TRIPOS>BOND
     1    19    20    1
     2    20    13    1
     3    13    14   ar
     4    14    15   ar
     5    15     1    1
     6     1     2   am
     7     2     3    2
     8     2     4   am
     9     4    21    1
    10    21    22   ar
    11    22    23   ar
    12    23    24   ar
    13    24    27    1
    14    27    28   ar
    15    28    29   ar
    16    29    30   ar
    17    30    34    1
    18    34    35   ar
    19    34    36   ar
    20    30    31   ar
    21    31    32    1
    22    31    33   ar
    23    24    25   ar
    24    25    26   ar
    25     4     5   am
    26     5     6    2
    27     5     7    1
    28     7     8    1
    29     8     9    1
    30     9    10    1
    31    10    37    1
    32    37    38    1
    33    38    39   ar
    34    39    40   ar
    35    40    41   ar
    36    41    42   ar
    37    42    43   ar
    38    43    44    1
    39    10    11    1
    40    11    12    1
    41    15    16   ar
    42    16    17   ar
    43    17    18   ar
    44    18    13   ar
    45     7     1    1
    46    43    38   ar
    47    26    21   ar
    48    12     7    1
    49    33    27   ar
@<TRIPOS>MOLECULE
*****
 44 49 0 0 0
SMALL
GASTEIGER

@<TRIPOS>ATOM
      1 N         141.9437  138.5714  158.6507 N.am    1  UNL1       -0.2222
      2 C         141.4023  138.6152  160.0489 C.2     1  UNL1        0.3219
      3 O         140.2945  137.7624  160.5926 O.2     1  UNL1       -0.2512
      4 N         142.1631  139.6617  160.8080 N.am    1  UNL1       -0.1907
      5 C         143.1747  140.2646  159.8789 C.2     1  UNL1        0.2529
      6 O         144.1506  141.3506  160.2227 O.2     1  UNL1       -0.2724
      7 C         143.0392  139.5907  158.5456 C.3     1  UNL1        0.1391
      8 C         142.7886  138.8314  157.2765 C.3     1  UNL1        0.0449
      9 C         143.6051  139.1253  156.0530 C.3     1  UNL1        0.0746
     10 N         144.6722  140.1785  156.0987 N.3     1  UNL1       -0.2676
     11 C         144.9228  140.9378  157.3678 C.3     1  UNL1        0.0746
     12 C         144.1063  140.6439  158.5912 C.3     1  UNL1        0.0449
     13 C         139.6807  137.0154  155.7859 C.ar    1  UNL1        0.2293
     14 C         140.1519  137.9198  156.8858 C.ar    1  UNL1        0.0924
     15 C         141.4725  137.6670  157.5507 C.ar    1  UNL1        0.1453
     16 N         142.3219  136.5097  157.1155 N.ar    1  UNL1       -0.2084
     17 C         141.8507  135.6053  156.0156 C.ar    1  UNL1        0.2027
     18 N         140.5300  135.8582  155.3507 N.ar    1  UNL1       -0.1892
     19 C         137.9767  138.6620  154.7204 C.3     1  UNL1        0.2542
     20 O         138.3601  137.2682  155.1210 O.3     1  UNL1       -0.4560
     21 C         141.9497  140.0390  162.2439 C.ar    1  UNL1        0.0622
     22 C         143.0410  139.8149  163.2484 C.ar    1  UNL1        0.0154
     23 C         142.8276  140.1923  164.6844 C.ar    1  UNL1        0.0013
     24 C         141.5230  140.7937  165.1159 C.ar    1  UNL1        0.0001
     25 C         140.4316  141.0177  164.1115 C.ar    1  UNL1        0.0013
     26 C         140.6451  140.6404  162.6755 C.ar    1  UNL1        0.0154
     27 C         141.3096  141.1710  166.5520 C.ar    1  UNL1        0.0008
     28 C         142.2064  142.1818  167.2030 C.ar    1  UNL1        0.0001
     29 C         141.9930  142.5592  168.6391 C.ar    1  UNL1        0.0020
     30 C         140.8827  141.9256  169.4239 C.ar    1  UNL1        0.0246
     31 C         139.9859  140.9147  168.7728 C.ar    1  UNL1        0.0587
     32 CL        138.8758  140.2812  169.5578 Cl      1  UNL1       -0.0822
     33 C         140.1993  140.5374  167.3369 C.ar    1  UNL1        0.0114
     34 C         140.6693  142.3029  170.8599 C.2     1  UNL1        0.0737
     35 O         141.6764  141.9044  171.8977 O.co2   1  UNL1       -0.5446
     36 O         139.4488  143.0787  171.2581 O.co2   1  UNL1       -0.5446
     37 C         145.4887  140.4724  154.8751 C.3     1  UNL1        0.1183
     38 C         145.7336  141.8929  154.4603 C.ar    1  UNL1        0.0712
     39 N         144.6481  142.6735  153.7804 N.ar    1  UNL1       -0.2471
     40 C         144.8931  144.0941  153.3655 C.ar    1  UNL1        0.0985
     41 C         146.2235  144.7340  153.6306 C.ar    1  UNL1        0.0203
     42 C         147.3091  143.9534  154.3105 C.ar    1  UNL1       -0.0015
     43 C         147.0641  142.5329  154.7253 C.ar    1  UNL1       -0.0069
     44 C         148.1497  141.7523  155.4052 C.3     1  UNL1        0.0323
@<TRIPOS>UNITY_ATOM_ATTR
35 1
charge -1
@<TRIPOS>BOND
     1    19    20    1
     2    20    13    1
     3    13    14   ar
     4    14    15   ar
     5    15     1    1
     6     1     2   am
     7     2     3    2
     8     2     4   am
     9     4    21    1
    10    21    22   ar
    11    22    23   ar
    12    23    24   ar
    13    24    27    1
    14    27    28   ar
    15    28    29   ar
    16    29    30   ar
    17    30    34    1
    18    34    35   ar
    19    34    36   ar
    20    30    31   ar
    21    31    32    1
    22    31    33   ar
    23    24    25   ar
    24    25    26   ar
    25     4     5   am
    26     5     6    2
    27     5     7    1
    28     7     8    1
    29     8     9    1
    30     9    10    1
    31    10    37    1
    32    37    38    1
    33    38    39   ar
    34    39    40   ar
    35    40    41   ar
    36    41    42   ar
    37    42    43   ar
    38    43    44    1
    39    10    11    1
    40    11    12    1
    41    15    16   ar
    42    16    17   ar
    43    17    18   ar
    44    18    13   ar
    45     7     1    1
    46    43    38   ar
    47    26    21   ar
    48    12     7    1
    49    33    27   ar
@<TRIPOS>MOLECULE
*****
 44 49 0 0 0
SMALL
GASTEIGER

@<TRIPOS>ATOM
      1 N         138.7847  141.0087  158.6866 N.am    1  UNL1       -0.2222
      2 C         138.8328  141.6245  160.0536 C.2     1  UNL1        0.3219
      3 O         137.9693  142.7482  160.5453 O.2     1  UNL1       -0.2512
      4 N         139.8960  140.9193  160.8425 N.am    1  UNL1       -0.1907
      5 C         140.5049  139.8677  159.9632 C.2     1  UNL1        0.2529
      6 O         141.6072  138.9261  160.3485 O.2     1  UNL1       -0.2724
      7 C         139.8182  139.9229  158.6307 C.3     1  UNL1        0.1391
      8 C         139.0449  140.0954  157.3570 C.3     1  UNL1        0.0449
      9 C         139.3398  139.2188  156.1761 C.3     1  UNL1        0.0746
     10 N         140.4079  138.1698  156.2689 N.3     1  UNL1       -0.2676
     11 C         141.1812  137.9974  157.5425 C.3     1  UNL1        0.0746
     12 C         140.8863  138.8739  158.7235 C.3     1  UNL1        0.0449
     13 C         137.2924  142.9740  155.5785 C.ar    1  UNL1        0.2293
     14 C         138.2124  142.5742  156.6937 C.ar    1  UNL1        0.0924
     15 C         137.8647  141.4085  157.5714 C.ar    1  UNL1        0.1453
     16 N         136.5970  140.6427  157.3338 N.ar    1  UNL1       -0.2084
     17 C         135.6770  141.0424  156.2187 C.ar    1  UNL1        0.2027
     18 N         136.0247  142.2081  155.3409 N.ar    1  UNL1       -0.1892
     19 C         138.1125  145.4248  155.3132 C.3     1  UNL1        0.2542
     20 O         137.6400  144.1396  154.7008 O.3     1  UNL1       -0.4560
     21 C         140.2823  141.2139  162.2616 C.ar    1  UNL1        0.0622
     22 C         141.2062  142.3557  162.5657 C.ar    1  UNL1        0.0154
     23 C         141.5926  142.6504  163.9849 C.ar    1  UNL1        0.0013
     24 C         141.0550  141.8032  165.0999 C.ar    1  UNL1        0.0001
     25 C         140.1310  140.6613  164.7958 C.ar    1  UNL1        0.0013
     26 C         139.7447  140.3667  163.3766 C.ar    1  UNL1        0.0154
     27 C         141.4413  142.0978  166.5190 C.ar    1  UNL1        0.0008
     28 C         142.7757  141.6537  167.0407 C.ar    1  UNL1        0.0001
     29 C         143.1620  141.9484  168.4599 C.ar    1  UNL1        0.0020
     30 C         142.2139  142.6871  169.3572 C.ar    1  UNL1        0.0246
     31 C         140.8795  143.1312  168.8356 C.ar    1  UNL1        0.0587
     32 CL        139.9315  143.8699  169.7330 Cl      1  UNL1       -0.0822
     33 C         140.4932  142.8366  167.4165 C.ar    1  UNL1        0.0114
     34 C         142.6002  142.9818  170.7764 C.2     1  UNL1        0.0737
     35 O         141.9569  142.2262  171.9012 O.co2   1  UNL1       -0.5446
     36 O         143.6300  144.0320  171.0707 O.co2   1  UNL1       -0.5446
     37 C         140.7028  137.2932  155.0879 C.3     1  UNL1        0.1183
     38 C         141.6080  136.1071  155.2416 C.ar    1  UNL1        0.0712
     39 N         141.0249  134.7373  155.4246 N.ar    1  UNL1       -0.2471
     40 C         141.9302  133.5511  155.5784 C.ar    1  UNL1        0.0985
     41 C         143.4186  133.7349  155.5492 C.ar    1  UNL1        0.0203
     42 C         144.0017  135.1047  155.3663 C.ar    1  UNL1       -0.0015
     43 C         143.0965  136.2908  155.2125 C.ar    1  UNL1       -0.0069
     44 C         143.6797  137.6606  155.0295 C.3     1  UNL1        0.0323
@<TRIPOS>UNITY_ATOM_ATTR
35 1
charge -1
@<TRIPOS>BOND
     1    19    20    1
     2    20    13    1
     3    13    14   ar
     4    14    15   ar
     5    15     1    1
     6     1     2   am
     7     2     3    2
     8     2     4   am
     9     4    21    1
    10    21    22   ar
    11    22    23   ar
    12    23    24   ar
    13    24    27    1
    14    27    28   ar
    15    28    29   ar
    16    29    30   ar
    17    30    34    1
    18    34    35   ar
    19    34    36   ar
    20    30    31   ar
    21    31    32    1
    22    31    33   ar
    23    24    25   ar
    24    25    26   ar
    25     4     5   am
    26     5     6    2
    27     5     7    1
    28     7     8    1
    29     8     9    1
    30     9    10    1
    31    10    37    1
    32    37    38    1
    33    38    39   ar
    34    39    40   ar
    35    40    41   ar
    36    41    42   ar
    37    42    43   ar
    38    43    44    1
    39    10    11    1
    40    11    12    1
    41    15    16   ar
    42    16    17   ar
    43    17    18   ar
    44    18    13   ar
    45     7     1    1
    46    43    38   ar
    47    26    21   ar
    48    12     7    1
    49    33    27   ar
@<TRIPOS>MOLECULE
*****
 44 49 0 0 0
SMALL
GASTEIGER

@<TRIPOS>ATOM
      1 N         142.9558  139.5775  158.5092 N.am    1  UNL1       -0.2222
      2 C         142.4900  139.3324  159.9140 C.2     1  UNL1        0.3219
      3 O         141.6532  138.1766  160.3763 O.2     1  UNL1       -0.2512
      4 N         143.0080  140.4461  160.7750 N.am    1  UNL1       -0.1907
      5 C         143.7939  141.3795  159.9026 C.2     1  UNL1        0.2529
      6 O         144.4899  142.6301  160.3515 O.2     1  UNL1       -0.2724
      7 C         143.7616  140.8427  158.5022 C.3     1  UNL1        0.1391
      8 C         143.6420  140.1880  157.1580 C.3     1  UNL1        0.0449
      9 C         144.3000  140.8076  155.9608 C.3     1  UNL1        0.0746
     10 N         145.0776  142.0818  156.1080 N.3     1  UNL1       -0.2676
     11 C         145.1972  142.7365  157.4522 C.3     1  UNL1        0.0746
     12 C         144.5392  142.1169  158.6493 C.3     1  UNL1        0.0449
     13 C         141.1174  138.0458  155.3432 C.ar    1  UNL1        0.2293
     14 C         141.4067  138.9135  156.5320 C.ar    1  UNL1        0.0924
     15 C         142.6665  138.7098  157.3204 C.ar    1  UNL1        0.1453
     16 N         143.6369  137.6385  156.9199 N.ar    1  UNL1       -0.2084
     17 C         143.3477  136.7708  155.7311 C.ar    1  UNL1        0.2027
     18 N         142.0879  136.9745  154.9427 N.ar    1  UNL1       -0.1892
     19 C         138.7009  137.3116  154.7342 C.3     1  UNL1        0.2542
     20 O         139.8577  138.2494  154.5548 O.3     1  UNL1       -0.4560
     21 C         142.7802  140.5994  162.2496 C.ar    1  UNL1        0.0622
     22 C         143.4498  139.6650  163.2132 C.ar    1  UNL1        0.0154
     23 C         143.2219  139.8184  164.6878 C.ar    1  UNL1        0.0013
     24 C         142.3245  140.9062  165.1989 C.ar    1  UNL1        0.0001
     25 C         141.6548  141.8407  164.2353 C.ar    1  UNL1        0.0013
     26 C         141.8827  141.6872  162.7607 C.ar    1  UNL1        0.0154
     27 C         142.0966  141.0595  166.6736 C.ar    1  UNL1        0.0008
     28 C         142.6387  140.0360  167.6267 C.ar    1  UNL1        0.0001
     29 C         142.4109  140.1894  169.1013 C.ar    1  UNL1        0.0020
     30 C         141.6408  141.3663  169.6228 C.ar    1  UNL1        0.0246
     31 C         141.0987  142.3898  168.6696 C.ar    1  UNL1        0.0587
     32 CL        140.3286  143.5667  169.1912 Cl      1  UNL1       -0.0822
     33 C         141.3265  142.2365  167.1951 C.ar    1  UNL1        0.0114
     34 C         141.4129  141.5197  171.0974 C.2     1  UNL1        0.0737
     35 O         140.4333  140.6284  171.8017 O.co2   1  UNL1       -0.5446
     36 O         142.1647  142.5644  171.8678 O.co2   1  UNL1       -0.5446
     37 C         145.7357  142.7014  154.9108 C.3     1  UNL1        0.1183
     38 C         147.2119  142.5405  154.6992 C.ar    1  UNL1        0.0712
     39 N         148.0042  141.6371  155.5970 N.ar    1  UNL1       -0.2471
     40 C         149.4805  141.4763  155.3854 C.ar    1  UNL1        0.0985
     41 C         150.1644  142.2187  154.2759 C.ar    1  UNL1        0.0203
     42 C         149.3721  143.1221  153.3780 C.ar    1  UNL1       -0.0015
     43 C         147.8959  143.2830  153.5897 C.ar    1  UNL1       -0.0069
     44 C         147.1035  144.1864  152.6918 C.3     1  UNL1        0.0323
@<TRIPOS>UNITY_ATOM_ATTR
35 1
charge -1
@<TRIPOS>BOND
     1    19    20    1
     2    20    13    1
     3    13    14   ar
     4    14    15   ar
     5    15     1    1
     6     1     2   am
     7     2     3    2
     8     2     4   am
     9     4    21    1
    10    21    22   ar
    11    22    23   ar
    12    23    24   ar
    13    24    27    1
    14    27    28   ar
    15    28    29   ar
    16    29    30   ar
    17    30    34    1
    18    34    35   ar
    19    34    36   ar
    20    30    31   ar
    21    31    32    1
    22    31    33   ar
    23    24    25   ar
    24    25    26   ar
    25     4     5   am
    26     5     6    2
    27     5     7    1
    28     7     8    1
    29     8     9    1
    30     9    10    1
    31    10    37    1
    32    37    38    1
    33    38    39   ar
    34    39    40   ar
    35    40    41   ar
    36    41    42   ar
    37    42    43   ar
    38    43    44    1
    39    10    11    1
    40    11    12    1
    41    15    16   ar
    42    16    17   ar
    43    17    18   ar
    44    18    13   ar
    45     7     1    1
    46    43    38   ar
    47    26    21   ar
    48    12     7    1
    49    33    27   ar
@<TRIPOS>MOLECULE
*****
 44 49 0 0 0
SMALL
GASTEIGER

@<TRIPOS>ATOM
      1 N         142.1067  138.5004  158.6578 N.am    1  UNL1       -0.2222
      2 C         142.5438  138.6474  160.0852 C.2     1  UNL1        0.3219
      3 O         143.8510  138.1870  160.6589 O.2     1  UNL1       -0.2512
      4 N         141.4440  139.3356  160.8382 N.am    1  UNL1       -0.1907
      5 C         140.3273  139.6140  159.8762 C.2     1  UNL1        0.2529
      6 O         139.0290  140.2899  160.2041 O.2     1  UNL1       -0.2724
      7 C         140.7368  139.0979  158.5286 C.3     1  UNL1        0.1391
      8 C         141.2808  138.5364  157.2484 C.3     1  UNL1        0.0449
      9 C         140.4640  138.6055  155.9923 C.3     1  UNL1        0.0746
     10 N         139.1031  139.2361  156.0163 N.3     1  UNL1       -0.2676
     11 C         138.5592  139.7975  157.2965 C.3     1  UNL1        0.0746
     12 C         139.3760  139.7284  158.5526 C.3     1  UNL1        0.0449
     13 C         143.6344  135.7501  156.2389 C.ar    1  UNL1        0.2293
     14 C         142.8409  136.3833  157.3431 C.ar    1  UNL1        0.0924
     15 C         142.9002  137.8672  157.5535 C.ar    1  UNL1        0.1453
     16 N         143.7529  138.7180  156.6596 N.ar    1  UNL1       -0.2084
     17 C         144.5463  138.0849  155.5554 C.ar    1  UNL1        0.2027
     18 N         144.4871  136.6009  155.3450 N.ar    1  UNL1       -0.1892
     19 C         143.3589  133.3510  157.1971 C.3     1  UNL1        0.2542
     20 O         143.5752  134.2661  156.0284 O.3     1  UNL1       -0.4560
     21 C         141.4584  139.6843  162.2970 C.ar    1  UNL1        0.0622
     22 C         141.5184  141.1209  162.7242 C.ar    1  UNL1        0.0154
     23 C         141.5328  141.4695  164.1831 C.ar    1  UNL1        0.0013
     24 C         141.4873  140.3815  165.2147 C.ar    1  UNL1        0.0001
     25 C         141.4273  138.9448  164.7875 C.ar    1  UNL1        0.0013
     26 C         141.4129  138.5963  163.3286 C.ar    1  UNL1        0.0154
     27 C         141.5017  140.7301  166.6736 C.ar    1  UNL1        0.0008
     28 C         142.1531  139.8059  167.6592 C.ar    1  UNL1        0.0001
     29 C         142.1675  140.1545  169.1181 C.ar    1  UNL1        0.0020
     30 C         141.5305  141.4274  169.5912 C.ar    1  UNL1        0.0246
     31 C         140.8792  142.3517  168.6056 C.ar    1  UNL1        0.0587
     32 CL        140.2422  143.6246  169.0789 Cl      1  UNL1       -0.0822
     33 C         140.8647  142.0031  167.1469 C.ar    1  UNL1        0.0114
     34 C         141.5450  141.7761  171.0501 C.2     1  UNL1        0.0737
     35 O         142.4231  142.8858  171.5474 O.co2   1  UNL1       -0.5446
     36 O         140.6812  141.0149  172.0117 O.co2   1  UNL1       -0.5446
     37 C         138.2863  139.3052  154.7601 C.3     1  UNL1        0.1183
     38 C         136.9188  139.9208  154.7876 C.ar    1  UNL1        0.0712
     39 N         135.7247  139.0804  155.1309 N.ar    1  UNL1       -0.2471
     40 C         134.3571  139.6961  155.1584 C.ar    1  UNL1        0.0985
     41 C         134.1837  141.1522  154.8426 C.ar    1  UNL1        0.0203
     42 C         135.3777  141.9926  154.4993 C.ar    1  UNL1       -0.0015
     43 C         136.7453  141.3770  154.4718 C.ar    1  UNL1       -0.0069
     44 C         137.9394  142.2174  154.1285 C.3     1  UNL1        0.0323
@<TRIPOS>UNITY_ATOM_ATTR
35 1
charge -1
@<TRIPOS>BOND
     1    19    20    1
     2    20    13    1
     3    13    14   ar
     4    14    15   ar
     5    15     1    1
     6     1     2   am
     7     2     3    2
     8     2     4   am
     9     4    21    1
    10    21    22   ar
    11    22    23   ar
    12    23    24   ar
    13    24    27    1
    14    27    28   ar
    15    28    29   ar
    16    29    30   ar
    17    30    34    1
    18    34    35   ar
    19    34    36   ar
    20    30    31   ar
    21    31    32    1
    22    31    33   ar
    23    24    25   ar
    24    25    26   ar
    25     4     5   am
    26     5     6    2
    27     5     7    1
    28     7     8    1
    29     8     9    1
    30     9    10    1
    31    10    37    1
    32    37    38    1
    33    38    39   ar
    34    39    40   ar
    35    40    41   ar
    36    41    42   ar
    37    42    43   ar
    38    43    44    1
    39    10    11    1
    40    11    12    1
    41    15    16   ar
    42    16    17   ar
    43    17    18   ar
    44    18    13   ar
    45     7     1    1
    46    43    38   ar
    47    26    21   ar
    48    12     7    1
    49    33    27   ar
