@<TRIPOS>MOLECULE
*****
 42 47 0 0 0
SMALL
GASTEIGER

@<TRIPOS>ATOM
      1 C         138.4803  138.8119  162.4828 C.ar    1  UNL1       -0.0061
      2 C         138.1025  140.1028  163.1466 C.ar    1  UNL1       -0.0028
      3 C         138.1018  140.2046  164.6432 C.ar    1  UNL1        0.0030
      4 C         138.4790  139.0153  165.4759 C.ar    1  UNL1        0.0420
      5 C         138.8568  137.7243  164.8120 C.ar    1  UNL1        0.0030
      6 C         138.8575  137.6226  163.3155 C.ar    1  UNL1       -0.0028
      7 C         138.4783  139.1170  166.9724 C.2     1  UNL1        0.2297
      8 O         137.4315  138.4001  167.7724 O.2     1  UNL1       -0.2833
      9 C         139.5246  139.9357  167.6690 C.ar    1  UNL1        0.1873
     10 N         139.3837  140.5884  169.0121 N.ar    1  UNL1       -0.2235
     11 C         140.6674  141.3015  169.3180 C.ar    1  UNL1        0.0991
     12 C         141.1063  142.1165  170.4983 C.ar    1  UNL1        0.0206
     13 C         142.4794  142.7194  170.5244 C.ar    1  UNL1        0.0016
     14 C         143.4138  142.5075  169.3703 C.ar    1  UNL1        0.0016
     15 C         142.9749  141.6925  168.1899 C.ar    1  UNL1        0.0191
     16 C         141.6017  141.0895  168.1638 C.ar    1  UNL1        0.0830
     17 N         140.8954  140.2454  167.1447 N.ar    1  UNL1       -0.2877
     18 C         141.4607  139.7909  165.8317 C.ar    1  UNL1        0.0655
     19 C         142.0312  138.4101  165.6985 C.ar    1  UNL1        0.0184
     20 C         142.5965  137.9555  164.3856 C.ar    1  UNL1        0.0129
     21 C         142.5913  138.8818  163.2058 C.ar    1  UNL1        0.0578
     22 CL        143.1566  138.4272  161.8929 Cl      1  UNL1       -0.0822
     23 C         142.0208  140.2626  163.3389 C.ar    1  UNL1        0.0129
     24 C         141.4555  140.7172  164.6519 C.ar    1  UNL1        0.0184
     25 C         138.4810  138.7101  160.9862 C.3     1  UNL1        0.0991
     26 C         140.2069  142.0441  158.5051 C.3     1  UNL1        0.0251
     27 C         138.7211  141.9275  158.6752 C.3     1  UNL1        0.0217
     28 C         138.1458  140.8162  159.5022 C.3     1  UNL1        0.0727
     29 N         139.0563  139.8214  160.1592 N.3     1  UNL1       -0.2689
     30 C         140.5420  139.9381  159.9891 C.3     1  UNL1        0.0727
     31 C         141.1173  141.0494  159.1621 C.3     1  UNL1        0.0217
     32 C         140.7523  145.6380  156.9124 C.ar    1  UNL1        0.0500
     33 C         141.9328  145.3782  156.0241 C.ar    1  UNL1        0.0147
     34 C         142.5379  144.0070  155.9629 C.ar    1  UNL1        0.0009
     35 C         141.9626  142.8957  156.7899 C.ar    1  UNL1       -0.0042
     36 C         140.7822  143.1555  157.6781 C.ar    1  UNL1       -0.0212
     37 C         140.1770  144.5266  157.7394 C.ar    1  UNL1        0.0104
     38 C         138.4742  148.7732  156.0573 C.3     1  UNL1        0.0949
     39 C         139.0794  147.4020  155.9961 C.2     1  UNL1        0.2266
     40 O         138.6168  146.4238  154.9573 O.2     1  UNL1       -0.2748
     41 N         140.1471  147.0091  156.9736 N.am    1  UNL1       -0.2839
     42 H         140.4507  147.6511  157.6554 H       1  UNL1        0.1549
@<TRIPOS>BOND
     1    38    39    1
     2    39    40    2
     3    39    41   am
     4    41    32    1
     5    32    33   ar
     6    33    34   ar
     7    34    35   ar
     8    35    36   ar
     9    36    26    1
    10    26    27    1
    11    27    28    1
    12    28    29    1
    13    29    25    1
    14    25     1    1
    15     1     2   ar
    16     2     3   ar
    17     3     4   ar
    18     4     7    1
    19     7     8    2
    20     7     9    1
    21     9    10   ar
    22    10    11   ar
    23    11    12   ar
    24    12    13   ar
    25    13    14   ar
    26    14    15   ar
    27    15    16   ar
    28    16    17   ar
    29    17    18    1
    30    18    19   ar
    31    19    20   ar
    32    20    21   ar
    33    21    22    1
    34    21    23   ar
    35    23    24   ar
    36     4     5   ar
    37     5     6   ar
    38    29    30    1
    39    30    31    1
    40    36    37   ar
    41    37    32   ar
    42    31    26    1
    43     6     1   ar
    44    17     9   ar
    45    24    18   ar
    46    16    11   ar
    47    41    42    1
@<TRIPOS>MOLECULE
*****
 42 47 0 0 0
SMALL
GASTEIGER

@<TRIPOS>ATOM
      1 C         138.4938  140.2572  162.3795 C.ar    1  UNL1       -0.0061
      2 C         138.8547  138.8679  162.8150 C.ar    1  UNL1       -0.0028
      3 C         138.8798  138.5221  164.2744 C.ar    1  UNL1        0.0030
      4 C         138.5439  139.5655  165.2983 C.ar    1  UNL1        0.0420
      5 C         138.1829  140.9548  164.8628 C.ar    1  UNL1        0.0030
      6 C         138.1579  141.3006  163.4034 C.ar    1  UNL1       -0.0028
      7 C         138.5689  139.2197  166.7576 C.2     1  UNL1        0.2297
      8 O         137.6399  138.1726  167.2963 O.2     1  UNL1       -0.2833
      9 C         139.5231  139.9211  167.6783 C.ar    1  UNL1        0.1873
     10 N         139.2308  140.3617  169.0821 N.ar    1  UNL1       -0.2235
     11 C         140.4641  141.0179  169.6283 C.ar    1  UNL1        0.0991
     12 C         140.7631  141.6428  170.9587 C.ar    1  UNL1        0.0206
     13 C         142.1167  142.2327  171.2229 C.ar    1  UNL1        0.0016
     14 C         143.1712  142.1976  170.1568 C.ar    1  UNL1        0.0016
     15 C         142.8722  141.5727  168.8264 C.ar    1  UNL1        0.0191
     16 C         141.5187  140.9829  168.5621 C.ar    1  UNL1        0.0830
     17 N         140.9371  140.3050  167.3570 N.ar    1  UNL1       -0.2877
     18 C         141.6452  140.0549  166.0585 C.ar    1  UNL1        0.0655
     19 C         142.2344  138.7054  165.7733 C.ar    1  UNL1        0.0184
     20 C         142.9425  138.4554  164.4748 C.ar    1  UNL1        0.0129
     21 C         143.0614  139.5549  163.4615 C.ar    1  UNL1        0.0578
     22 CL        143.7696  139.3049  162.1631 Cl      1  UNL1       -0.0822
     23 C         142.4722  140.9045  163.7467 C.ar    1  UNL1        0.0129
     24 C         141.7641  141.1546  165.0452 C.ar    1  UNL1        0.0184
     25 C         138.4687  140.6031  160.9201 C.3     1  UNL1        0.0991
     26 C         141.4701  138.7600  158.1192 C.3     1  UNL1        0.0251
     27 C         140.0269  138.3584  158.0419 C.3     1  UNL1        0.0217
     28 C         139.0264  138.9728  158.9755 C.3     1  UNL1        0.0727
     29 N         139.4692  139.9887  159.9865 N.3     1  UNL1       -0.2689
     30 C         140.9124  140.3902  160.0638 C.3     1  UNL1        0.0727
     31 C         141.9128  139.7759  159.1301 C.3     1  UNL1        0.0217
     32 C         143.7465  136.0580  156.3117 C.ar    1  UNL1        0.0500
     33 C         144.4715  136.9170  155.3183 C.ar    1  UNL1        0.0147
     34 C         144.1960  138.3902  155.2587 C.ar    1  UNL1        0.0009
     35 C         143.1955  139.0046  156.1923 C.ar    1  UNL1       -0.0042
     36 C         142.4706  138.1457  157.1856 C.ar    1  UNL1       -0.0212
     37 C         142.7460  136.6723  157.2453 C.ar    1  UNL1        0.0104
     38 C         143.3196  132.1409  155.8381 C.3     1  UNL1        0.0949
     39 C         143.0440  133.6142  155.7784 C.2     1  UNL1        0.2266
     40 O         141.7905  134.1169  155.1258 O.2     1  UNL1       -0.2748
     41 N         144.0220  134.5847  156.3714 N.am    1  UNL1       -0.2839
     42 H         144.8447  134.2548  156.7997 H       1  UNL1        0.1549
@<TRIPOS>BOND
     1    38    39    1
     2    39    40    2
     3    39    41   am
     4    41    32    1
     5    32    33   ar
     6    33    34   ar
     7    34    35   ar
     8    35    36   ar
     9    36    26    1
    10    26    27    1
    11    27    28    1
    12    28    29    1
    13    29    25    1
    14    25     1    1
    15     1     2   ar
    16     2     3   ar
    17     3     4   ar
    18     4     7    1
    19     7     8    2
    20     7     9    1
    21     9    10   ar
    22    10    11   ar
    23    11    12   ar
    24    12    13   ar
    25    13    14   ar
    26    14    15   ar
    27    15    16   ar
    28    16    17   ar
    29    17    18    1
    30    18    19   ar
    31    19    20   ar
    32    20    21   ar
    33    21    22    1
    34    21    23   ar
    35    23    24   ar
    36     4     5   ar
    37     5     6   ar
    38    29    30    1
    39    30    31    1
    40    36    37   ar
    41    37    32   ar
    42    31    26    1
    43     6     1   ar
    44    17     9   ar
    45    24    18   ar
    46    16    11   ar
    47    41    42    1
@<TRIPOS>MOLECULE
*****
 42 47 0 0 0
SMALL
GASTEIGER

@<TRIPOS>ATOM
      1 C         143.9770  141.8747  162.1179 C.ar    1  UNL1       -0.0061
      2 C         144.5858  142.0326  163.4797 C.ar    1  UNL1       -0.0028
      3 C         144.1221  141.1668  164.6135 C.ar    1  UNL1        0.0030
      4 C         143.0497  140.1431  164.3855 C.ar    1  UNL1        0.0420
      5 C         142.4409  139.9852  163.0237 C.ar    1  UNL1        0.0030
      6 C         142.9046  140.8510  161.8899 C.ar    1  UNL1       -0.0028
      7 C         142.5861  139.2773  165.5193 C.2     1  UNL1        0.2297
      8 O         142.4959  137.7909  165.3395 O.2     1  UNL1       -0.2833
      9 C         142.2127  139.8980  166.8328 C.ar    1  UNL1        0.1873
     10 N         142.8182  139.5719  168.1658 N.ar    1  UNL1       -0.2235
     11 C         142.1479  140.4260  169.2008 C.ar    1  UNL1        0.0991
     12 C         142.3344  140.5365  170.6851 C.ar    1  UNL1        0.0206
     13 C         141.5012  141.5010  171.4759 C.ar    1  UNL1        0.0016
     14 C         140.4814  142.3550  170.7825 C.ar    1  UNL1        0.0016
     15 C         140.2949  142.2445  169.2983 C.ar    1  UNL1        0.0191
     16 C         141.1282  141.2800  168.5074 C.ar    1  UNL1        0.0830
     17 N         141.1682  140.9536  167.0439 N.ar    1  UNL1       -0.2877
     18 C         140.3138  141.5741  165.9786 C.ar    1  UNL1        0.0655
     19 C         139.0615  140.8842  165.5251 C.ar    1  UNL1        0.0184
     20 C         138.2070  141.5046  164.4598 C.ar    1  UNL1        0.0129
     21 C         138.6049  142.8150  163.8478 C.ar    1  UNL1        0.0578
     22 CL        137.7504  143.4355  162.7825 Cl      1  UNL1       -0.0822
     23 C         139.8572  143.5050  164.3012 C.ar    1  UNL1        0.0129
     24 C         140.7117  142.8846  165.3666 C.ar    1  UNL1        0.0184
     25 C         144.4406  142.7405  160.9841 C.3     1  UNL1        0.0991
     26 C         141.4464  144.4722  158.1055 C.3     1  UNL1        0.0251
     27 C         141.2805  144.6884  159.5806 C.3     1  UNL1        0.0217
     28 C         142.2786  144.1112  160.5401 C.3     1  UNL1        0.0727
     29 N         143.4425  143.3177  160.0246 N.3     1  UNL1       -0.2689
     30 C         143.6084  143.1016  158.5495 C.3     1  UNL1        0.0727
     31 C         142.6103  143.6788  157.5900 C.3     1  UNL1        0.0217
     32 C         139.0093  147.0531  156.3309 C.ar    1  UNL1        0.0500
     33 C         138.4523  146.2039  155.2270 C.ar    1  UNL1        0.0147
     34 C         138.8933  144.7775  155.0826 C.ar    1  UNL1        0.0009
     35 C         139.8914  144.2003  156.0421 C.ar    1  UNL1       -0.0042
     36 C         140.4484  145.0494  157.1460 C.ar    1  UNL1       -0.0212
     37 C         140.0073  146.4759  157.2904 C.ar    1  UNL1        0.0104
     38 C         138.5327  150.9238  155.5953 C.3     1  UNL1        0.0949
     39 C         138.9738  149.4973  155.4508 C.2     1  UNL1        0.2266
     40 O         139.8204  149.0888  154.2820 O.2     1  UNL1       -0.2748
     41 N         138.5682  148.4795  156.4753 N.am    1  UNL1       -0.2839
     42 H         138.0126  148.7477  157.2425 H       1  UNL1        0.1549
@<TRIPOS>BOND
     1    38    39    1
     2    39    40    2
     3    39    41   am
     4    41    32    1
     5    32    33   ar
     6    33    34   ar
     7    34    35   ar
     8    35    36   ar
     9    36    26    1
    10    26    27    1
    11    27    28    1
    12    28    29    1
    13    29    25    1
    14    25     1    1
    15     1     2   ar
    16     2     3   ar
    17     3     4   ar
    18     4     7    1
    19     7     8    2
    20     7     9    1
    21     9    10   ar
    22    10    11   ar
    23    11    12   ar
    24    12    13   ar
    25    13    14   ar
    26    14    15   ar
    27    15    16   ar
    28    16    17   ar
    29    17    18    1
    30    18    19   ar
    31    19    20   ar
    32    20    21   ar
    33    21    22    1
    34    21    23   ar
    35    23    24   ar
    36     4     5   ar
    37     5     6   ar
    38    29    30    1
    39    30    31    1
    40    36    37   ar
    41    37    32   ar
    42    31    26    1
    43     6     1   ar
    44    17     9   ar
    45    24    18   ar
    46    16    11   ar
    47    41    42    1
@<TRIPOS>MOLECULE
*****
 42 47 0 0 0
SMALL
GASTEIGER

@<TRIPOS>ATOM
      1 C         138.1063  139.8692  162.2300 C.ar    1  UNL1       -0.0061
      2 C         137.7492  140.9117  163.2476 C.ar    1  UNL1       -0.0028
      3 C         137.8801  140.6077  164.7107 C.ar    1  UNL1        0.0030
      4 C         138.3682  139.2611  165.1561 C.ar    1  UNL1        0.0420
      5 C         138.7253  138.2185  164.1385 C.ar    1  UNL1        0.0030
      6 C         138.5944  138.5225  162.6755 C.ar    1  UNL1       -0.0028
      7 C         138.4991  138.9571  166.6191 C.2     1  UNL1        0.2297
      8 O         137.6357  137.9029  167.2462 O.2     1  UNL1       -0.2833
      9 C         139.4934  139.7072  167.4550 C.ar    1  UNL1        0.1873
     10 N         139.3183  140.1015  168.8916 N.ar    1  UNL1       -0.2235
     11 C         140.5540  140.8328  169.3255 C.ar    1  UNL1        0.0991
     12 C         140.9456  141.4536  170.6336 C.ar    1  UNL1        0.0206
     13 C         142.2761  142.1320  170.7733 C.ar    1  UNL1        0.0016
     14 C         143.2149  142.1896  169.6048 C.ar    1  UNL1        0.0016
     15 C         142.8233  141.5688  168.2967 C.ar    1  UNL1        0.0191
     16 C         141.4928  140.8904  168.1571 C.ar    1  UNL1        0.0830
     17 N         140.8373  140.1947  167.0010 N.ar    1  UNL1       -0.2877
     18 C         141.4230  140.0177  165.6315 C.ar    1  UNL1        0.0655
     19 C         142.0498  138.7104  165.2470 C.ar    1  UNL1        0.0184
     20 C         142.6355  138.5334  163.8775 C.ar    1  UNL1        0.0129
     21 C         142.5943  139.6638  162.8923 C.ar    1  UNL1        0.0578
     22 CL        143.1800  139.4868  161.5228 Cl      1  UNL1       -0.0822
     23 C         141.9675  140.9712  163.2767 C.ar    1  UNL1        0.0129
     24 C         141.3818  141.1482  164.6463 C.ar    1  UNL1        0.0184
     25 C         137.9754  140.1732  160.7670 C.3     1  UNL1        0.0991
     26 C         141.4783  139.5375  158.0146 C.3     1  UNL1        0.0251
     27 C         140.5610  138.3953  158.3372 C.3     1  UNL1        0.0217
     28 C         139.3934  138.6072  159.2546 C.3     1  UNL1        0.0727
     29 N         139.1430  139.9613  159.8495 N.3     1  UNL1       -0.2689
     30 C         140.0603  141.1034  159.5270 C.3     1  UNL1        0.0727
     31 C         141.2280  140.8915  158.6095 C.3     1  UNL1        0.0217
     32 C         144.9684  140.0709  156.2021 C.ar    1  UNL1        0.0500
     33 C         144.9813  138.9018  155.2623 C.ar    1  UNL1        0.0147
     34 C         143.8266  137.9447  155.2400 C.ar    1  UNL1        0.0009
     35 C         142.6590  138.1566  156.1575 C.ar    1  UNL1       -0.0042
     36 C         142.6460  139.3256  157.0972 C.ar    1  UNL1       -0.0212
     37 C         143.8007  140.2828  157.1195 C.ar    1  UNL1        0.0104
     38 C         147.3676  143.0762  155.2213 C.3     1  UNL1        0.0949
     39 C         146.2128  142.1191  155.1989 C.2     1  UNL1        0.2266
     40 O         145.1478  142.2530  154.1511 O.2     1  UNL1       -0.2748
     41 N         146.1231  141.0280  156.2244 N.am    1  UNL1       -0.2839
     42 H         146.8220  140.9402  156.9121 H       1  UNL1        0.1549
@<TRIPOS>BOND
     1    38    39    1
     2    39    40    2
     3    39    41   am
     4    41    32    1
     5    32    33   ar
     6    33    34   ar
     7    34    35   ar
     8    35    36   ar
     9    36    26    1
    10    26    27    1
    11    27    28    1
    12    28    29    1
    13    29    25    1
    14    25     1    1
    15     1     2   ar
    16     2     3   ar
    17     3     4   ar
    18     4     7    1
    19     7     8    2
    20     7     9    1
    21     9    10   ar
    22    10    11   ar
    23    11    12   ar
    24    12    13   ar
    25    13    14   ar
    26    14    15   ar
    27    15    16   ar
    28    16    17   ar
    29    17    18    1
    30    18    19   ar
    31    19    20   ar
    32    20    21   ar
    33    21    22    1
    34    21    23   ar
    35    23    24   ar
    36     4     5   ar
    37     5     6   ar
    38    29    30    1
    39    30    31    1
    40    36    37   ar
    41    37    32   ar
    42    31    26    1
    43     6     1   ar
    44    17     9   ar
    45    24    18   ar
    46    16    11   ar
    47    41    42    1
@<TRIPOS>MOLECULE
*****
 42 47 0 0 0
SMALL
GASTEIGER

@<TRIPOS>ATOM
      1 C         141.9740  138.1914  162.2484 C.ar    1  UNL1       -0.0061
      2 C         143.3191  138.7746  162.5653 C.ar    1  UNL1       -0.0028
      3 C         143.7727  138.8828  163.9910 C.ar    1  UNL1        0.0030
      4 C         142.8810  138.4079  165.0998 C.ar    1  UNL1        0.0420
      5 C         141.5358  137.8248  164.7829 C.ar    1  UNL1        0.0030
      6 C         141.0823  137.7165  163.3572 C.ar    1  UNL1       -0.0028
      7 C         143.3345  138.5162  166.5255 C.2     1  UNL1        0.2297
      8 O         144.4504  137.6474  167.0255 O.2     1  UNL1       -0.2833
      9 C         142.6722  139.4931  167.4511 C.ar    1  UNL1        0.1873
     10 N         142.3468  139.2571  168.8962 N.ar    1  UNL1       -0.2235
     11 C         141.6924  140.4957  169.4324 C.ar    1  UNL1        0.0991
     12 C         141.1583  140.8410  170.7909 C.ar    1  UNL1        0.0206
     13 C         140.5452  142.1878  171.0356 C.ar    1  UNL1        0.0016
     14 C         140.4661  143.1894  169.9218 C.ar    1  UNL1        0.0016
     15 C         141.0001  142.8442  168.5634 C.ar    1  UNL1        0.0191
     16 C         141.6133  141.4973  168.3186 C.ar    1  UNL1        0.0830
     17 N         142.2188  140.8777  167.0941 N.ar    1  UNL1       -0.2877
     18 C         142.3482  141.5284  165.7489 C.ar    1  UNL1        0.0655
     19 C         143.6243  142.2195  165.3696 C.ar    1  UNL1        0.0184
     20 C         143.7538  142.8702  164.0243 C.ar    1  UNL1        0.0129
     21 C         142.6070  142.8299  163.0582 C.ar    1  UNL1        0.0578
     22 CL        142.7365  143.4806  161.7129 Cl      1  UNL1       -0.0822
     23 C         141.3309  142.1388  163.4374 C.ar    1  UNL1        0.0129
     24 C         141.2014  141.4881  164.7827 C.ar    1  UNL1        0.0184
     25 C         141.5204  138.0832  160.8227 C.3     1  UNL1        0.0991
     26 C         142.0109  141.5806  158.0338 C.3     1  UNL1        0.0251
     27 C         142.9039  140.3829  157.8991 C.3     1  UNL1        0.0217
     28 C         142.7404  139.2171  158.8287 C.3     1  UNL1        0.0727
     29 N         141.6839  139.2490  159.8931 N.3     1  UNL1       -0.2689
     30 C         140.7910  140.4466  160.0278 C.3     1  UNL1        0.0727
     31 C         140.9545  141.6124  159.0982 C.3     1  UNL1        0.0217
     32 C         141.6478  145.2106  156.4714 C.ar    1  UNL1        0.0500
     33 C         142.5014  145.0780  155.2450 C.ar    1  UNL1        0.0147
     34 C         143.1914  143.7796  154.9484 C.ar    1  UNL1        0.0009
     35 C         143.0279  142.6138  155.8780 C.ar    1  UNL1       -0.0042
     36 C         142.1744  142.7464  157.1042 C.ar    1  UNL1       -0.0212
     37 C         141.4843  144.0448  157.4010 C.ar    1  UNL1        0.0104
     38 C         138.8672  148.0402  156.5805 C.3     1  UNL1        0.0949
     39 C         139.5572  146.7417  156.2837 C.2     1  UNL1        0.2266
     40 O         138.8469  145.6762  155.5028 O.2     1  UNL1       -0.2748
     41 N         140.9577  146.5089  156.7680 N.am    1  UNL1       -0.2839
     42 H         141.4239  147.2083  157.2806 H       1  UNL1        0.1549
@<TRIPOS>BOND
     1    38    39    1
     2    39    40    2
     3    39    41   am
     4    41    32    1
     5    32    33   ar
     6    33    34   ar
     7    34    35   ar
     8    35    36   ar
     9    36    26    1
    10    26    27    1
    11    27    28    1
    12    28    29    1
    13    29    25    1
    14    25     1    1
    15     1     2   ar
    16     2     3   ar
    17     3     4   ar
    18     4     7    1
    19     7     8    2
    20     7     9    1
    21     9    10   ar
    22    10    11   ar
    23    11    12   ar
    24    12    13   ar
    25    13    14   ar
    26    14    15   ar
    27    15    16   ar
    28    16    17   ar
    29    17    18    1
    30    18    19   ar
    31    19    20   ar
    32    20    21   ar
    33    21    22    1
    34    21    23   ar
    35    23    24   ar
    36     4     5   ar
    37     5     6   ar
    38    29    30    1
    39    30    31    1
    40    36    37   ar
    41    37    32   ar
    42    31    26    1
    43     6     1   ar
    44    17     9   ar
    45    24    18   ar
    46    16    11   ar
    47    41    42    1
@<TRIPOS>MOLECULE
*****
 42 47 0 0 0
SMALL
GASTEIGER

@<TRIPOS>ATOM
      1 C         138.9694  138.5964  161.9803 C.ar    1  UNL1       -0.0061
      2 C         138.0676  139.6744  162.5043 C.ar    1  UNL1       -0.0028
      3 C         137.9237  139.8787  163.9834 C.ar    1  UNL1        0.0030
      4 C         138.6818  139.0050  164.9384 C.ar    1  UNL1        0.0420
      5 C         139.5836  137.9270  164.4143 C.ar    1  UNL1        0.0030
      6 C         139.7274  137.7227  162.9353 C.ar    1  UNL1       -0.0028
      7 C         138.5380  139.2092  166.4174 C.2     1  UNL1        0.2297
      8 O         137.2829  138.7766  167.1157 O.2     1  UNL1       -0.2833
      9 C         139.6492  139.8461  167.1981 C.ar    1  UNL1        0.1873
     10 N         140.0273  139.5271  168.6142 N.ar    1  UNL1       -0.2235
     11 C         141.1892  140.3977  168.9911 C.ar    1  UNL1        0.0991
     12 C         141.9816  140.5207  170.2588 C.ar    1  UNL1        0.0206
     13 C         143.1139  141.5007  170.3433 C.ar    1  UNL1        0.0016
     14 C         143.4539  142.3578  169.1602 C.ar    1  UNL1        0.0016
     15 C         142.6616  142.2348  167.8925 C.ar    1  UNL1        0.0191
     16 C         141.5292  141.2547  167.8080 C.ar    1  UNL1        0.0830
     17 N         140.5774  140.9139  166.6999 N.ar    1  UNL1       -0.2877
     18 C         140.5574  141.5322  165.3334 C.ar    1  UNL1        0.0655
     19 C         141.4596  141.0040  164.2578 C.ar    1  UNL1        0.0184
     20 C         141.4396  141.6224  162.8914 C.ar    1  UNL1        0.0129
     21 C         140.5173  142.7690  162.6005 C.ar    1  UNL1        0.0578
     22 CL        140.4973  143.3874  161.2340 Cl      1  UNL1       -0.0822
     23 C         139.6151  143.2973  163.6760 C.ar    1  UNL1        0.0129
     24 C         139.6351  142.6789  165.0425 C.ar    1  UNL1        0.0184
     25 C         139.1132  138.3921  160.5012 C.3     1  UNL1        0.0991
     26 C         140.2829  141.8402  157.8568 C.3     1  UNL1        0.0251
     27 C         138.8444  141.4269  157.9580 C.3     1  UNL1        0.0217
     28 C         138.4546  140.2775  158.8394 C.3     1  UNL1        0.0727
     29 N         139.5031  139.5415  159.6197 N.3     1  UNL1       -0.2689
     30 C         140.9415  139.9548  159.5186 C.3     1  UNL1        0.0727
     31 C         141.3313  141.1042  158.6371 C.3     1  UNL1        0.0217
     32 C         140.6290  145.5320  156.4424 C.ar    1  UNL1        0.0500
     33 C         141.4525  145.2883  155.2125 C.ar    1  UNL1        0.0147
     34 C         141.8861  143.8953  154.8641 C.ar    1  UNL1        0.0009
     35 C         141.4962  142.7459  155.7456 C.ar    1  UNL1       -0.0042
     36 C         140.6728  142.9896  156.9754 C.ar    1  UNL1       -0.0212
     37 C         140.2391  144.3827  157.3238 C.ar    1  UNL1        0.0104
     38 C         138.5739  148.9271  156.4551 C.3     1  UNL1        0.0949
     39 C         139.0075  147.5340  156.1066 C.2     1  UNL1        0.2266
     40 O         138.2531  146.7499  155.0742 O.2     1  UNL1       -0.2748
     41 N         140.1954  146.9251  156.7907 N.am    1  UNL1       -0.2839
     42 H         140.6906  147.4397  157.4684 H       1  UNL1        0.1549
@<TRIPOS>BOND
     1    38    39    1
     2    39    40    2
     3    39    41   am
     4    41    32    1
     5    32    33   ar
     6    33    34   ar
     7    34    35   ar
     8    35    36   ar
     9    36    26    1
    10    26    27    1
    11    27    28    1
    12    28    29    1
    13    29    25    1
    14    25     1    1
    15     1     2   ar
    16     2     3   ar
    17     3     4   ar
    18     4     7    1
    19     7     8    2
    20     7     9    1
    21     9    10   ar
    22    10    11   ar
    23    11    12   ar
    24    12    13   ar
    25    13    14   ar
    26    14    15   ar
    27    15    16   ar
    28    16    17   ar
    29    17    18    1
    30    18    19   ar
    31    19    20   ar
    32    20    21   ar
    33    21    22    1
    34    21    23   ar
    35    23    24   ar
    36     4     5   ar
    37     5     6   ar
    38    29    30    1
    39    30    31    1
    40    36    37   ar
    41    37    32   ar
    42    31    26    1
    43     6     1   ar
    44    17     9   ar
    45    24    18   ar
    46    16    11   ar
    47    41    42    1
@<TRIPOS>MOLECULE
*****
 42 47 0 0 0
SMALL
GASTEIGER

@<TRIPOS>ATOM
      1 C         144.0258  142.1284  161.5685 C.ar    1  UNL1       -0.0061
      2 C         143.6751  143.5269  161.9820 C.ar    1  UNL1       -0.0028
      3 C         143.7700  143.9287  163.4242 C.ar    1  UNL1        0.0030
      4 C         144.2157  142.9319  164.4526 C.ar    1  UNL1        0.0420
      5 C         144.5665  141.5334  164.0390 C.ar    1  UNL1        0.0030
      6 C         144.4715  141.1316  162.5970 C.ar    1  UNL1       -0.0028
      7 C         144.3107  143.3337  165.8947 C.2     1  UNL1        0.2297
      8 O         145.3421  144.3326  166.3285 O.2     1  UNL1       -0.2833
      9 C         143.3743  142.7365  166.9029 C.ar    1  UNL1        0.1873
     10 N         143.7095  142.3971  168.3250 N.ar    1  UNL1       -0.2235
     11 C         142.4806  141.8247  168.9670 C.ar    1  UNL1        0.0991
     12 C         142.2170  141.3147  170.3528 C.ar    1  UNL1        0.0206
     13 C         140.8587  140.7904  170.7132 C.ar    1  UNL1        0.0016
     14 C         139.7639  140.7761  169.6879 C.ar    1  UNL1        0.0016
     15 C         140.0275  141.2861  168.3021 C.ar    1  UNL1        0.0191
     16 C         141.3858  141.8104  167.9417 C.ar    1  UNL1        0.0830
     17 N         141.9382  142.3739  166.6660 N.ar    1  UNL1       -0.2877
     18 C         141.1863  142.5448  165.3793 C.ar    1  UNL1        0.0655
     19 C         140.5710  143.8701  165.0405 C.ar    1  UNL1        0.0184
     20 C         139.8191  144.0410  163.7539 C.ar    1  UNL1        0.0129
     21 C         139.6827  142.8866  162.8059 C.ar    1  UNL1        0.0578
     22 CL        138.9308  143.0575  161.5192 Cl      1  UNL1       -0.0822
     23 C         140.2980  141.5612  163.1446 C.ar    1  UNL1        0.0129
     24 C         141.0499  141.3903  164.4313 C.ar    1  UNL1        0.0184
     25 C         143.9309  141.7265  160.1264 C.3     1  UNL1        0.0991
     26 C         140.8198  143.5998  157.4690 C.3     1  UNL1        0.0251
     27 C         142.2223  144.1320  157.4722 C.3     1  UNL1        0.0217
     28 C         143.2593  143.5075  158.3580 C.3     1  UNL1        0.0727
     29 N         142.8938  142.3510  159.2406 N.3     1  UNL1       -0.2689
     30 C         141.4914  141.8189  159.2373 C.3     1  UNL1        0.0727
     31 C         140.4544  142.4433  158.3515 C.3     1  UNL1        0.0217
     32 C         138.6634  146.3416  155.5760 C.ar    1  UNL1        0.0500
     33 C         137.7087  145.4731  154.8115 C.ar    1  UNL1        0.0147
     34 C         137.7910  143.9803  154.9329 C.ar    1  UNL1        0.0009
     35 C         138.8280  143.3559  155.8187 C.ar    1  UNL1       -0.0042
     36 C         139.7827  144.2243  156.5832 C.ar    1  UNL1       -0.0212
     37 C         139.7004  145.7171  156.4618 C.ar    1  UNL1        0.0104
     38 C         139.4430  150.0592  154.4265 C.3     1  UNL1        0.0949
     39 C         139.5254  148.5663  154.5478 C.2     1  UNL1        0.2266
     40 O         140.5520  147.8055  153.7622 O.2     1  UNL1       -0.2748
     41 N         138.5811  147.8343  155.4547 N.am    1  UNL1       -0.2839
     42 H         137.9072  148.3337  155.9703 H       1  UNL1        0.1549
@<TRIPOS>BOND
     1    38    39    1
     2    39    40    2
     3    39    41   am
     4    41    32    1
     5    32    33   ar
     6    33    34   ar
     7    34    35   ar
     8    35    36   ar
     9    36    26    1
    10    26    27    1
    11    27    28    1
    12    28    29    1
    13    29    25    1
    14    25     1    1
    15     1     2   ar
    16     2     3   ar
    17     3     4   ar
    18     4     7    1
    19     7     8    2
    20     7     9    1
    21     9    10   ar
    22    10    11   ar
    23    11    12   ar
    24    12    13   ar
    25    13    14   ar
    26    14    15   ar
    27    15    16   ar
    28    16    17   ar
    29    17    18    1
    30    18    19   ar
    31    19    20   ar
    32    20    21   ar
    33    21    22    1
    34    21    23   ar
    35    23    24   ar
    36     4     5   ar
    37     5     6   ar
    38    29    30    1
    39    30    31    1
    40    36    37   ar
    41    37    32   ar
    42    31    26    1
    43     6     1   ar
    44    17     9   ar
    45    24    18   ar
    46    16    11   ar
    47    41    42    1
@<TRIPOS>MOLECULE
*****
 42 47 0 0 0
SMALL
GASTEIGER

@<TRIPOS>ATOM
      1 C         141.8677  143.4388  161.3858 C.ar    1  UNL1       -0.0061
      2 C         142.6268  142.1752  161.1083 C.ar    1  UNL1       -0.0028
      3 C         143.0701  141.3017  162.2444 C.ar    1  UNL1        0.0030
      4 C         142.7544  141.6919  163.6579 C.ar    1  UNL1        0.0420
      5 C         141.9953  142.9557  163.9353 C.ar    1  UNL1        0.0030
      6 C         141.5520  143.8290  162.7993 C.ar    1  UNL1       -0.0028
      7 C         143.1976  140.8186  164.7940 C.2     1  UNL1        0.2297
      8 O         144.4482  140.0001  164.6670 O.2     1  UNL1       -0.2833
      9 C         142.3904  140.7636  166.0570 C.ar    1  UNL1        0.1873
     10 N         142.8464  141.2087  167.4149 N.ar    1  UNL1       -0.2235
     11 C         141.7232  140.9741  168.3811 C.ar    1  UNL1        0.0991
     12 C         141.5992  141.2216  169.8553 C.ar    1  UNL1        0.0206
     13 C         140.3250  140.8790  170.5687 C.ar    1  UNL1        0.0016
     14 C         139.1748  140.2889  169.8078 C.ar    1  UNL1        0.0016
     15 C         139.2988  140.0414  168.3336 C.ar    1  UNL1        0.0191
     16 C         140.5730  140.3841  167.6202 C.ar    1  UNL1        0.0830
     17 N         140.9853  140.2540  166.1839 N.ar    1  UNL1       -0.2877
     18 C         140.1409  139.7098  165.0700 C.ar    1  UNL1        0.0655
     19 C         139.0821  140.5678  164.4435 C.ar    1  UNL1        0.0184
     20 C         138.2376  140.0236  163.3296 C.ar    1  UNL1        0.0129
     21 C         138.4519  138.6212  162.8423 C.ar    1  UNL1        0.0578
     22 CL        137.6075  138.0770  161.7284 Cl      1  UNL1       -0.0822
     23 C         139.5107  137.7631  163.4688 C.ar    1  UNL1        0.0129
     24 C         140.3552  138.3073  164.5827 C.ar    1  UNL1        0.0184
     25 C         141.4244  144.3123  160.2497 C.3     1  UNL1        0.0991
     26 C         138.3301  142.8231  157.3415 C.3     1  UNL1        0.0251
     27 C         138.2622  142.4147  158.7833 C.3     1  UNL1        0.0217
     28 C         139.2937  142.9111  159.7527 C.3     1  UNL1        0.0727
     29 N         140.3929  143.8159  159.2803 N.3     1  UNL1       -0.2689
     30 C         140.4607  144.2242  157.8386 C.3     1  UNL1        0.0727
     31 C         139.4293  143.7278  156.8692 C.3     1  UNL1        0.0217
     32 C         135.4399  140.6251  155.7396 C.ar    1  UNL1        0.0500
     33 C         135.2357  141.3339  154.4334 C.ar    1  UNL1        0.0147
     34 C         136.0629  142.5390  154.0967 C.ar    1  UNL1        0.0009
     35 C         137.0944  143.0354  155.0660 C.ar    1  UNL1       -0.0042
     36 C         137.2986  142.3267  156.3722 C.ar    1  UNL1       -0.0212
     37 C         136.4714  141.1215  156.7089 C.ar    1  UNL1        0.0104
     38 C         132.3422  138.3768  156.7881 C.3     1  UNL1        0.0949
     39 C         133.1694  139.5820  156.4514 C.2     1  UNL1        0.2266
     40 O         132.5534  140.9491  156.4897 O.2     1  UNL1       -0.2748
     41 N         134.6127  139.4200  156.0763 N.am    1  UNL1       -0.2839
     42 H         135.0171  138.5227  156.0511 H       1  UNL1        0.1549
@<TRIPOS>BOND
     1    38    39    1
     2    39    40    2
     3    39    41   am
     4    41    32    1
     5    32    33   ar
     6    33    34   ar
     7    34    35   ar
     8    35    36   ar
     9    36    26    1
    10    26    27    1
    11    27    28    1
    12    28    29    1
    13    29    25    1
    14    25     1    1
    15     1     2   ar
    16     2     3   ar
    17     3     4   ar
    18     4     7    1
    19     7     8    2
    20     7     9    1
    21     9    10   ar
    22    10    11   ar
    23    11    12   ar
    24    12    13   ar
    25    13    14   ar
    26    14    15   ar
    27    15    16   ar
    28    16    17   ar
    29    17    18    1
    30    18    19   ar
    31    19    20   ar
    32    20    21   ar
    33    21    22    1
    34    21    23   ar
    35    23    24   ar
    36     4     5   ar
    37     5     6   ar
    38    29    30    1
    39    30    31    1
    40    36    37   ar
    41    37    32   ar
    42    31    26    1
    43     6     1   ar
    44    17     9   ar
    45    24    18   ar
    46    16    11   ar
    47    41    42    1
@<TRIPOS>MOLECULE
*****
 42 47 0 0 0
SMALL
GASTEIGER

@<TRIPOS>ATOM
      1 C         138.0847  141.0256  158.2210 C.ar    1  UNL1       -0.0061
      2 C         138.5138  142.4330  158.5128 C.ar    1  UNL1       -0.0028
      3 C         138.6039  142.9107  159.9319 C.ar    1  UNL1        0.0030
      4 C         138.2650  141.9809  161.0592 C.ar    1  UNL1        0.0420
      5 C         137.8359  140.5735  160.7673 C.ar    1  UNL1        0.0030
      6 C         137.7458  140.0959  159.3483 C.ar    1  UNL1       -0.0028
      7 C         138.3551  142.4586  162.4782 C.2     1  UNL1        0.2297
      8 O         137.1039  142.7550  163.2506 O.2     1  UNL1       -0.2833
      9 C         139.6964  142.6398  163.1248 C.ar    1  UNL1        0.1873
     10 N         140.6724  143.7419  162.8368 N.ar    1  UNL1       -0.2235
     11 C         141.8764  143.5340  163.7069 C.ar    1  UNL1        0.0991
     12 C         143.1538  144.3062  163.8540 C.ar    1  UNL1        0.0206
     13 C         144.1995  143.8479  164.8269 C.ar    1  UNL1        0.0016
     14 C         143.9676  142.6173  165.6527 C.ar    1  UNL1        0.0016
     15 C         142.6901  141.8451  165.5057 C.ar    1  UNL1        0.0191
     16 C         141.6445  142.3034  164.5328 C.ar    1  UNL1        0.0830
     17 N         140.2972  141.7508  164.1730 N.ar    1  UNL1       -0.2877
     18 C         139.6622  140.5245  164.7586 C.ar    1  UNL1        0.0655
     19 C         139.1025  140.5612  166.1497 C.ar    1  UNL1        0.0184
     20 C         138.4675  139.3349  166.7354 C.ar    1  UNL1        0.0129
     21 C         138.3923  138.0718  165.9298 C.ar    1  UNL1        0.0578
     22 CL        137.7573  136.8455  166.5155 Cl      1  UNL1       -0.0822
     23 C         138.9521  138.0350  164.5387 C.ar    1  UNL1        0.0129
     24 C         139.5870  139.2613  163.9530 C.ar    1  UNL1        0.0184
     25 C         137.9946  140.5479  156.8019 C.3     1  UNL1        0.0991
     26 C         140.4031  136.9881  155.4690 C.3     1  UNL1        0.0251
     27 C         139.1716  137.3868  154.7110 C.3     1  UNL1        0.0217
     28 C         138.3687  138.5734  155.1553 C.3     1  UNL1        0.0727
     29 N         138.7974  139.3613  156.3576 N.3     1  UNL1       -0.2689
     30 C         140.0289  138.9626  157.1156 C.3     1  UNL1        0.0727
     31 C         140.8317  137.7760  156.6713 C.3     1  UNL1        0.0217
     32 C         143.1849  134.1586  155.3920 C.ar    1  UNL1        0.0500
     33 C         142.8116  133.4282  154.1361 C.ar    1  UNL1        0.0147
     34 C         141.6355  133.8845  153.3246 C.ar    1  UNL1        0.0009
     35 C         140.8326  135.0711  153.7689 C.ar    1  UNL1       -0.0042
     36 C         141.2059  135.8015  155.0247 C.ar    1  UNL1       -0.0212
     37 C         142.3821  135.3453  155.8363 C.ar    1  UNL1        0.0104
     38 C         145.3660  132.1672  158.0429 C.3     1  UNL1        0.0949
     39 C         144.1898  132.6234  157.2314 C.2     1  UNL1        0.2266
     40 O         142.8425  132.0007  157.4477 O.2     1  UNL1       -0.2748
     41 N         144.3610  133.7024  156.2035 N.am    1  UNL1       -0.2839
     42 H         145.2453  134.1112  156.0615 H       1  UNL1        0.1549
@<TRIPOS>BOND
     1    38    39    1
     2    39    40    2
     3    39    41   am
     4    41    32    1
     5    32    33   ar
     6    33    34   ar
     7    34    35   ar
     8    35    36   ar
     9    36    26    1
    10    26    27    1
    11    27    28    1
    12    28    29    1
    13    29    25    1
    14    25     1    1
    15     1     2   ar
    16     2     3   ar
    17     3     4   ar
    18     4     7    1
    19     7     8    2
    20     7     9    1
    21     9    10   ar
    22    10    11   ar
    23    11    12   ar
    24    12    13   ar
    25    13    14   ar
    26    14    15   ar
    27    15    16   ar
    28    16    17   ar
    29    17    18    1
    30    18    19   ar
    31    19    20   ar
    32    20    21   ar
    33    21    22    1
    34    21    23   ar
    35    23    24   ar
    36     4     5   ar
    37     5     6   ar
    38    29    30    1
    39    30    31    1
    40    36    37   ar
    41    37    32   ar
    42    31    26    1
    43     6     1   ar
    44    17     9   ar
    45    24    18   ar
    46    16    11   ar
    47    41    42    1
