@<TRIPOS>MOLECULE
*****
 31 34 0 0 0
SMALL
GASTEIGER

@<TRIPOS>ATOM
      1 C         141.5259  140.5581  167.7155 C.3     1  UNL1        0.2959
      2 N         140.3507  140.2977  168.6105 N.2     1  UNL1       -0.2191
      3 C         140.8725  139.9888  169.9825 C.2     1  UNL1        0.1399
      4 C         140.0424  139.6668  171.1897 C.3     1  UNL1        0.0598
      5 C         142.3701  140.0584  169.9354 C.2     1  UNL1        0.3289
      6 N         143.3006  139.8182  171.0872 N.pl3   1  UNL1       -0.2454
      7 N         142.7740  140.4102  168.5343 N.2     1  UNL1       -0.0404
      8 H         142.9379  139.5914  171.9739 H       1  UNL1        0.2885
      9 H         144.2739  139.8875  170.9565 H       1  UNL1        0.2885
     10 C         144.3941  141.4723  164.3706 C.ar    1  UNL1        0.1307
     11 C         143.7564  140.1177  164.4627 C.ar    1  UNL1        0.0117
     12 C         144.0748  139.0678  163.4398 C.3     1  UNL1        0.0342
     13 C         142.8004  139.8130  165.5776 C.ar    1  UNL1        0.0008
     14 C         142.4820  140.8629  166.6005 C.ar    1  UNL1        0.0475
     15 C         143.1196  142.2174  166.5085 C.ar    1  UNL1        0.0008
     16 C         144.0756  142.5221  165.3935 C.ar    1  UNL1        0.0117
     17 C         144.7133  143.8768  165.3015 C.3     1  UNL1        0.0342
     18 C         144.8367  142.3180  161.9543 C.3     1  UNL1        0.2524
     19 O         145.3501  141.7770  163.2557 O.3     1  UNL1       -0.4721
     20 C         140.4777  140.7697  166.6636 C.ar    1  UNL1        0.0479
     21 C         139.3866  139.7573  166.4776 C.ar    1  UNL1        0.0021
     22 C         138.3385  139.9689  165.4257 C.ar    1  UNL1       -0.0001
     23 C         138.3814  141.1929  164.5598 C.ar    1  UNL1        0.0001
     24 C         139.4724  142.2053  164.7456 C.ar    1  UNL1        0.0029
     25 C         140.5206  141.9937  165.7976 C.ar    1  UNL1        0.0022
     26 C         139.5152  143.4293  163.8797 C.ar    1  UNL1        0.0384
     27 C         138.2765  143.8897  163.1699 C.ar    1  UNL1        0.1022
     28 N         138.3194  145.1137  162.3039 N.ar    1  UNL1       -0.2224
     29 C         139.6010  145.8774  162.1477 C.ar    1  UNL1        0.1989
     30 N         140.8397  145.4171  162.8575 N.ar    1  UNL1       -0.2224
     31 C         140.7968  144.1930  163.7235 C.ar    1  UNL1        0.1022
@<TRIPOS>BOND
     1    18    19    1
     2    19    10    1
     3    10    11   ar
     4    11    12    1
     5    11    13   ar
     6    13    14   ar
     7     1    14    1
     8     1    20    1
     9    20    21   ar
    10    21    22   ar
    11    22    23   ar
    12    23    24   ar
    13    24    26    1
    14    26    27   ar
    15    27    28   ar
    16    28    29   ar
    17    29    30   ar
    18    30    31   ar
    19    24    25   ar
    20     1     2    1
    21     2     3    2
    22     3     4    1
    23     3     5    1
    24     5     6    1
    25     5     7    2
    26    14    15   ar
    27    15    16   ar
    28    16    17    1
    29    16    10   ar
    30     7     1    1
    31    25    20   ar
    32    31    26   ar
    33     6     8    1
    34     6     9    1
@<TRIPOS>MOLECULE
*****
 31 34 0 0 0
SMALL
GASTEIGER

@<TRIPOS>ATOM
      1 C         141.5877  141.3531  167.7430 C.3     1  UNL1        0.2959
      2 N         141.6614  140.2649  168.7728 N.2     1  UNL1       -0.2191
      3 C         142.7524  140.6158  169.7407 C.2     1  UNL1        0.1399
      4 C         143.1696  139.8041  170.9311 C.3     1  UNL1        0.0598
      5 C         143.3528  141.9208  169.3091 C.2     1  UNL1        0.3289
      6 N         144.4759  142.6433  169.9922 N.pl3   1  UNL1       -0.2454
      7 N         142.6331  142.3765  168.0745 N.2     1  UNL1       -0.0404
      8 H         144.8864  142.2619  170.8017 H       1  UNL1        0.2885
      9 H         144.8026  143.4990  169.6310 H       1  UNL1        0.2885
     10 C         140.6708  144.0956  164.2952 C.ar    1  UNL1        0.1307
     11 C         139.6980  143.9659  165.4296 C.ar    1  UNL1        0.0117
     12 C         138.4196  144.7504  165.4147 C.3     1  UNL1        0.0342
     13 C         140.0037  143.0517  166.5789 C.ar    1  UNL1        0.0008
     14 C         141.2821  142.2672  166.5938 C.ar    1  UNL1        0.0475
     15 C         142.2548  142.3969  165.4594 C.ar    1  UNL1        0.0008
     16 C         141.9492  143.3111  164.3101 C.ar    1  UNL1        0.0117
     17 C         142.9220  143.4408  163.1756 C.3     1  UNL1        0.0342
     18 C         139.6421  144.4843  161.9413 C.3     1  UNL1        0.2524
     19 O         140.3651  145.0098  163.1459 O.3     1  UNL1       -0.4721
     20 C         140.4784  140.5207  167.1713 C.ar    1  UNL1        0.0479
     21 C         139.3495  140.0700  168.0501 C.ar    1  UNL1        0.0021
     22 C         138.2403  139.2377  167.4784 C.ar    1  UNL1       -0.0001
     23 C         138.2600  138.8561  166.0279 C.ar    1  UNL1        0.0001
     24 C         139.3889  139.3069  165.1491 C.ar    1  UNL1        0.0029
     25 C         140.4981  140.1392  165.7208 C.ar    1  UNL1        0.0022
     26 C         139.4086  138.9253  163.6986 C.ar    1  UNL1        0.0384
     27 C         138.2975  139.3656  162.7921 C.ar    1  UNL1        0.1022
     28 N         138.3172  138.9841  161.3416 N.ar    1  UNL1       -0.2224
     29 C         139.4480  138.1622  160.7975 C.ar    1  UNL1        0.1989
     30 N         140.5590  137.7219  161.7040 N.ar    1  UNL1       -0.2224
     31 C         140.5393  138.1034  163.1546 C.ar    1  UNL1        0.1022
@<TRIPOS>BOND
     1    18    19    1
     2    19    10    1
     3    10    11   ar
     4    11    12    1
     5    11    13   ar
     6    13    14   ar
     7     1    14    1
     8     1    20    1
     9    20    21   ar
    10    21    22   ar
    11    22    23   ar
    12    23    24   ar
    13    24    26    1
    14    26    27   ar
    15    27    28   ar
    16    28    29   ar
    17    29    30   ar
    18    30    31   ar
    19    24    25   ar
    20     1     2    1
    21     2     3    2
    22     3     4    1
    23     3     5    1
    24     5     6    1
    25     5     7    2
    26    14    15   ar
    27    15    16   ar
    28    16    17    1
    29    16    10   ar
    30     7     1    1
    31    25    20   ar
    32    31    26   ar
    33     6     8    1
    34     6     9    1
@<TRIPOS>MOLECULE
*****
 31 34 0 0 0
SMALL
GASTEIGER

@<TRIPOS>ATOM
      1 C         141.5766  141.3519  167.7427 C.3     1  UNL1        0.2959
      2 N         141.6713  140.2655  168.7726 N.2     1  UNL1       -0.2191
      3 C         142.7661  140.6297  169.7312 C.2     1  UNL1        0.1399
      4 C         143.2024  139.8239  170.9188 C.3     1  UNL1        0.0598
      5 C         143.3480  141.9412  169.2937 C.2     1  UNL1        0.3289
      6 N         144.4683  142.6771  169.9669 N.pl3   1  UNL1       -0.2454
      7 N         142.6128  142.3875  168.0648 N.2     1  UNL1       -0.0404
      8 H         144.8898  142.3010  170.7733 H       1  UNL1        0.2885
      9 H         144.7821  143.5361  169.6025 H       1  UNL1        0.2885
     10 C         140.5998  144.0809  164.3006 C.ar    1  UNL1        0.1307
     11 C         141.8730  143.2879  164.2911 C.ar    1  UNL1        0.0117
     12 C         142.8207  143.4046  163.1341 C.3     1  UNL1        0.0342
     13 C         142.1986  142.3782  165.4385 C.ar    1  UNL1        0.0008
     14 C         141.2510  142.2616  166.5953 C.ar    1  UNL1        0.0475
     15 C         139.9778  143.0546  166.6048 C.ar    1  UNL1        0.0008
     16 C         139.6522  143.9642  165.4574 C.ar    1  UNL1        0.0117
     17 C         138.3790  144.7572  165.4670 C.3     1  UNL1        0.0342
     18 C         139.5202  144.4632  161.9686 C.3     1  UNL1        0.2524
     19 O         140.2742  144.9906  163.1532 O.3     1  UNL1       -0.4721
     20 C         140.4723  140.5064  167.1808 C.ar    1  UNL1        0.0479
     21 C         139.3427  140.0647  168.0633 C.ar    1  UNL1        0.0021
     22 C         138.2384  139.2193  167.5014 C.ar    1  UNL1       -0.0001
     23 C         138.2637  138.8156  166.0570 C.ar    1  UNL1        0.0001
     24 C         139.3932  139.2573  165.1745 C.ar    1  UNL1        0.0029
     25 C         140.4975  140.1028  165.7364 C.ar    1  UNL1        0.0022
     26 C         139.4185  138.8536  163.7301 C.ar    1  UNL1        0.0384
     27 C         138.3035  139.2676  162.8160 C.ar    1  UNL1        0.1022
     28 N         138.3288  138.8639  161.3716 N.ar    1  UNL1       -0.2224
     29 C         139.4691  138.0462  160.8411 C.ar    1  UNL1        0.1989
     30 N         140.5841  137.6323  161.7552 N.ar    1  UNL1       -0.2224
     31 C         140.5588  138.0360  163.1997 C.ar    1  UNL1        0.1022
@<TRIPOS>BOND
     1    18    19    1
     2    19    10    1
     3    10    11   ar
     4    11    12    1
     5    11    13   ar
     6    13    14   ar
     7     1    14    1
     8     1    20    1
     9    20    21   ar
    10    21    22   ar
    11    22    23   ar
    12    23    24   ar
    13    24    26    1
    14    26    27   ar
    15    27    28   ar
    16    28    29   ar
    17    29    30   ar
    18    30    31   ar
    19    24    25   ar
    20     1     2    1
    21     2     3    2
    22     3     4    1
    23     3     5    1
    24     5     6    1
    25     5     7    2
    26    14    15   ar
    27    15    16   ar
    28    16    17    1
    29    16    10   ar
    30     7     1    1
    31    25    20   ar
    32    31    26   ar
    33     6     8    1
    34     6     9    1
@<TRIPOS>MOLECULE
*****
 31 34 0 0 0
SMALL
GASTEIGER

@<TRIPOS>ATOM
      1 C         140.3392  141.1041  167.3804 C.3     1  UNL1        0.2959
      2 N         140.8362  142.0457  168.4369 N.2     1  UNL1       -0.2191
      3 C         140.1387  141.7104  169.7219 C.2     1  UNL1        0.1399
      4 C         140.3349  142.4024  171.0382 C.3     1  UNL1        0.0598
      5 C         139.2106  140.5616  169.4595 C.2     1  UNL1        0.3289
      6 N         138.3158  139.9031  170.4673 N.pl3   1  UNL1       -0.2454
      7 N         139.3345  140.1868  168.0124 N.2     1  UNL1       -0.0404
      8 H         138.3047  140.2223  171.3986 H       1  UNL1        0.2885
      9 H         137.7396  139.1518  170.1975 H       1  UNL1        0.2885
     10 C         139.4388  138.7517  163.6514 C.ar    1  UNL1        0.1307
     11 C         138.6581  139.9945  163.9609 C.ar    1  UNL1        0.0117
     12 C         137.5772  140.4532  163.0275 C.3     1  UNL1        0.0342
     13 C         138.9582  140.7786  165.2039 C.ar    1  UNL1        0.0008
     14 C         140.0390  140.3199  166.1374 C.ar    1  UNL1        0.0475
     15 C         140.8197  139.0771  165.8278 C.ar    1  UNL1        0.0008
     16 C         140.5196  138.2930  164.5848 C.ar    1  UNL1        0.0117
     17 C         141.3004  137.0502  164.2752 C.3     1  UNL1        0.0342
     18 C         139.8584  138.2828  161.1306 C.3     1  UNL1        0.2524
     19 O         139.1387  137.9676  162.4083 O.3     1  UNL1       -0.4721
     20 C         141.2811  141.8574  166.4885 C.ar    1  UNL1        0.0479
     21 C         142.7555  141.8324  166.7631 C.ar    1  UNL1        0.0021
     22 C         143.6974  142.5856  165.8714 C.ar    1  UNL1       -0.0001
     23 C         143.1648  143.3639  164.7049 C.ar    1  UNL1        0.0001
     24 C         141.6905  143.3890  164.4302 C.ar    1  UNL1        0.0029
     25 C         140.7486  142.6357  165.3221 C.ar    1  UNL1        0.0022
     26 C         141.1580  144.1673  163.2638 C.ar    1  UNL1        0.0384
     27 C         139.7728  144.7406  163.3143 C.ar    1  UNL1        0.1022
     28 N         139.2403  145.5190  162.1478 N.ar    1  UNL1       -0.2224
     29 C         140.0929  145.7239  160.9308 C.ar    1  UNL1        0.1989
     30 N         141.4781  145.1506  160.8803 N.ar    1  UNL1       -0.2224
     31 C         142.0106  144.3722  162.0469 C.ar    1  UNL1        0.1022
@<TRIPOS>BOND
     1    18    19    1
     2    19    10    1
     3    10    11   ar
     4    11    12    1
     5    11    13   ar
     6    13    14   ar
     7     1    14    1
     8     1    20    1
     9    20    21   ar
    10    21    22   ar
    11    22    23   ar
    12    23    24   ar
    13    24    26    1
    14    26    27   ar
    15    27    28   ar
    16    28    29   ar
    17    29    30   ar
    18    30    31   ar
    19    24    25   ar
    20     1     2    1
    21     2     3    2
    22     3     4    1
    23     3     5    1
    24     5     6    1
    25     5     7    2
    26    14    15   ar
    27    15    16   ar
    28    16    17    1
    29    16    10   ar
    30     7     1    1
    31    25    20   ar
    32    31    26   ar
    33     6     8    1
    34     6     9    1
@<TRIPOS>MOLECULE
*****
 31 34 0 0 0
SMALL
GASTEIGER

@<TRIPOS>ATOM
      1 C         140.9504  141.3554  167.8027 C.3     1  UNL1        0.2959
      2 N         140.8212  140.2098  168.7623 N.2     1  UNL1       -0.2191
      3 C         140.2874  140.7475  170.0569 C.2     1  UNL1        0.1399
      4 C         140.0040  139.9477  171.2939 C.3     1  UNL1        0.0598
      5 C         140.0867  142.2254  169.8974 C.2     1  UNL1        0.3289
      6 N         139.5675  143.1630  170.9469 N.pl3   1  UNL1       -0.2454
      7 N         140.4965  142.6012  168.5043 N.2     1  UNL1       -0.0404
      8 H         139.3236  142.8195  171.8367 H       1  UNL1        0.2885
      9 H         139.4705  144.1218  170.7458 H       1  UNL1        0.2885
     10 C         141.6535  144.1324  164.3323 C.ar    1  UNL1        0.1307
     11 C         142.7973  143.3579  164.9167 C.ar    1  UNL1        0.0117
     12 C         144.1756  143.5090  164.3444 C.3     1  UNL1        0.0342
     13 C         142.5630  142.4322  166.0735 C.ar    1  UNL1        0.0008
     14 C         141.1847  142.2811  166.6459 C.ar    1  UNL1        0.0475
     15 C         140.0409  143.0556  166.0615 C.ar    1  UNL1        0.0008
     16 C         140.2752  143.9813  164.9046 C.ar    1  UNL1        0.0117
     17 C         139.1313  144.7559  164.3202 C.3     1  UNL1        0.0342
     18 C         141.7564  144.5504  161.7701 C.3     1  UNL1        0.2524
     19 O         141.8878  145.0581  163.1755 O.3     1  UNL1       -0.4721
     20 C         141.4533  140.3032  166.8593 C.ar    1  UNL1        0.0479
     21 C         142.7197  139.5615  167.1692 C.ar    1  UNL1        0.0021
     22 C         143.2226  138.5094  166.2258 C.ar    1  UNL1       -0.0001
     23 C         142.4591  138.1989  164.9726 C.ar    1  UNL1        0.0001
     24 C         141.1927  138.9405  164.6627 C.ar    1  UNL1        0.0029
     25 C         140.6898  139.9927  165.6061 C.ar    1  UNL1        0.0022
     26 C         140.4292  138.6300  163.4095 C.ar    1  UNL1        0.0384
     27 C         141.1640  138.2485  162.1587 C.ar    1  UNL1        0.1022
     28 N         140.4005  137.9380  160.9054 N.ar    1  UNL1       -0.2224
     29 C         138.9021  138.0090  160.9030 C.ar    1  UNL1        0.1989
     30 N         138.1673  138.3906  162.1538 N.ar    1  UNL1       -0.2224
     31 C         138.9309  138.7011  163.4071 C.ar    1  UNL1        0.1022
@<TRIPOS>BOND
     1    18    19    1
     2    19    10    1
     3    10    11   ar
     4    11    12    1
     5    11    13   ar
     6    13    14   ar
     7     1    14    1
     8     1    20    1
     9    20    21   ar
    10    21    22   ar
    11    22    23   ar
    12    23    24   ar
    13    24    26    1
    14    26    27   ar
    15    27    28   ar
    16    28    29   ar
    17    29    30   ar
    18    30    31   ar
    19    24    25   ar
    20     1     2    1
    21     2     3    2
    22     3     4    1
    23     3     5    1
    24     5     6    1
    25     5     7    2
    26    14    15   ar
    27    15    16   ar
    28    16    17    1
    29    16    10   ar
    30     7     1    1
    31    25    20   ar
    32    31    26   ar
    33     6     8    1
    34     6     9    1
@<TRIPOS>MOLECULE
*****
 31 34 0 0 0
SMALL
GASTEIGER

@<TRIPOS>ATOM
      1 C         141.4826  142.4945  167.0682 C.3     1  UNL1        0.2959
      2 N         140.3519  142.5912  168.0491 N.2     1  UNL1       -0.2191
      3 C         140.9295  142.5134  169.4313 C.2     1  UNL1        0.1399
      4 C         140.1553  142.5704  170.7149 C.3     1  UNL1        0.0598
      5 C         142.4171  142.3688  169.3047 C.2     1  UNL1        0.3289
      6 N         143.3917  142.2557  170.4393 N.pl3   1  UNL1       -0.2454
      7 N         142.7590  142.3571  167.8442 N.2     1  UNL1       -0.0404
      8 H         143.0688  142.2735  171.3691 H       1  UNL1        0.2885
      9 H         144.3542  142.1636  170.2541 H       1  UNL1        0.2885
     10 C         144.1927  142.2815  163.4821 C.ar    1  UNL1        0.1307
     11 C         143.4559  143.5510  163.7911 C.ar    1  UNL1        0.0117
     12 C         143.6225  144.7496  162.9046 C.3     1  UNL1        0.0342
     13 C         142.5526  143.6220  164.9864 C.ar    1  UNL1        0.0008
     14 C         142.3860  142.4235  165.8729 C.ar    1  UNL1        0.0475
     15 C         143.1228  141.1540  165.5639 C.ar    1  UNL1        0.0008
     16 C         144.0261  141.0830  164.3686 C.ar    1  UNL1        0.0117
     17 C         144.7629  139.8134  164.0597 C.3     1  UNL1        0.0342
     18 C         144.5376  141.8362  160.9459 C.3     1  UNL1        0.2524
     19 O         145.0961  142.2105  162.2868 O.3     1  UNL1       -0.4721
     20 C         140.3952  142.6171  166.0424 C.ar    1  UNL1        0.0479
     21 C         139.6729  143.9200  165.8671 C.ar    1  UNL1        0.0021
     22 C         138.5855  144.0426  164.8413 C.ar    1  UNL1       -0.0001
     23 C         138.2203  142.8623  163.9907 C.ar    1  UNL1        0.0001
     24 C         138.9425  141.5594  164.1660 C.ar    1  UNL1        0.0029
     25 C         140.0299  141.4368  165.1918 C.ar    1  UNL1        0.0022
     26 C         138.5773  140.3791  163.3154 C.ar    1  UNL1        0.0384
     27 C         137.8301  140.5829  162.0308 C.ar    1  UNL1        0.1022
     28 N         137.4649  139.4026  161.1802 N.ar    1  UNL1       -0.2224
     29 C         137.8468  138.0184  161.6143 C.ar    1  UNL1        0.1989
     30 N         138.5940  137.8146  162.8989 N.ar    1  UNL1       -0.2224
     31 C         138.9592  138.9950  163.7495 C.ar    1  UNL1        0.1022
@<TRIPOS>BOND
     1    18    19    1
     2    19    10    1
     3    10    11   ar
     4    11    12    1
     5    11    13   ar
     6    13    14   ar
     7     1    14    1
     8     1    20    1
     9    20    21   ar
    10    21    22   ar
    11    22    23   ar
    12    23    24   ar
    13    24    26    1
    14    26    27   ar
    15    27    28   ar
    16    28    29   ar
    17    29    30   ar
    18    30    31   ar
    19    24    25   ar
    20     1     2    1
    21     2     3    2
    22     3     4    1
    23     3     5    1
    24     5     6    1
    25     5     7    2
    26    14    15   ar
    27    15    16   ar
    28    16    17    1
    29    16    10   ar
    30     7     1    1
    31    25    20   ar
    32    31    26   ar
    33     6     8    1
    34     6     9    1
@<TRIPOS>MOLECULE
*****
 31 34 0 0 0
SMALL
GASTEIGER

@<TRIPOS>ATOM
      1 C         140.2043  141.5696  167.2518 C.3     1  UNL1        0.2959
      2 N         140.2811  140.5797  168.3762 N.2     1  UNL1       -0.2191
      3 C         140.5282  141.3389  169.6461 C.2     1  UNL1        0.1399
      4 C         140.6738  140.7436  171.0151 C.3     1  UNL1        0.0598
      5 C         140.6042  142.7980  169.3065 C.2     1  UNL1        0.3289
      6 N         140.8391  143.9179  170.2764 N.pl3   1  UNL1       -0.2454
      7 N         140.4040  142.9406  167.8268 N.2     1  UNL1       -0.0404
      8 H         140.9598  143.7227  171.2338 H       1  UNL1        0.2885
      9 H         140.8725  144.8480  169.9556 H       1  UNL1        0.2885
     10 C         139.8324  143.7758  163.3474 C.ar    1  UNL1        0.1307
     11 C         138.7242  142.8766  163.8093 C.ar    1  UNL1        0.0117
     12 C         137.4920  142.7128  162.9697 C.3     1  UNL1        0.0342
     13 C         138.8482  142.1412  165.1107 C.ar    1  UNL1        0.0008
     14 C         140.0803  142.3050  165.9503 C.ar    1  UNL1        0.0475
     15 C         141.1885  143.2042  165.4885 C.ar    1  UNL1        0.0008
     16 C         141.0645  143.9396  164.1870 C.ar    1  UNL1        0.0117
     17 C         142.1728  144.8388  163.7252 C.3     1  UNL1        0.0342
     18 C         140.1793  143.8700  160.7744 C.3     1  UNL1        0.2524
     19 O         139.7084  144.5112  162.0460 O.3     1  UNL1       -0.4721
     20 C         139.9787  140.3524  166.4048 C.ar    1  UNL1        0.0479
     21 C         138.8005  139.4625  166.6692 C.ar    1  UNL1        0.0021
     22 C         138.5749  138.2453  165.8222 C.ar    1  UNL1       -0.0001
     23 C         139.5275  137.9180  164.7107 C.ar    1  UNL1        0.0001
     24 C         140.7057  138.8078  164.4463 C.ar    1  UNL1        0.0029
     25 C         140.9313  140.0250  165.2933 C.ar    1  UNL1        0.0022
     26 C         141.6583  138.4804  163.3348 C.ar    1  UNL1        0.0384
     27 C         143.1158  138.8058  163.4760 C.ar    1  UNL1        0.1022
     28 N         144.0684  138.4785  162.3645 N.ar    1  UNL1       -0.2224
     29 C         143.5635  137.8256  161.1119 C.ar    1  UNL1        0.1989
     30 N         142.1061  137.5002  160.9707 N.ar    1  UNL1       -0.2224
     31 C         141.1534  137.8276  162.0823 C.ar    1  UNL1        0.1022
@<TRIPOS>BOND
     1    18    19    1
     2    19    10    1
     3    10    11   ar
     4    11    12    1
     5    11    13   ar
     6    13    14   ar
     7     1    14    1
     8     1    20    1
     9    20    21   ar
    10    21    22   ar
    11    22    23   ar
    12    23    24   ar
    13    24    26    1
    14    26    27   ar
    15    27    28   ar
    16    28    29   ar
    17    29    30   ar
    18    30    31   ar
    19    24    25   ar
    20     1     2    1
    21     2     3    2
    22     3     4    1
    23     3     5    1
    24     5     6    1
    25     5     7    2
    26    14    15   ar
    27    15    16   ar
    28    16    17    1
    29    16    10   ar
    30     7     1    1
    31    25    20   ar
    32    31    26   ar
    33     6     8    1
    34     6     9    1
@<TRIPOS>MOLECULE
*****
 31 34 0 0 0
SMALL
GASTEIGER

@<TRIPOS>ATOM
      1 C         141.3117  142.0416  167.5778 C.3     1  UNL1        0.2959
      2 N         142.5166  142.0451  168.4712 N.2     1  UNL1       -0.2191
      3 C         142.2166  142.9221  169.6506 C.2     1  UNL1        0.1399
      4 C         143.1441  143.2101  170.7937 C.3     1  UNL1        0.0598
      5 C         140.8263  143.4606  169.4860 C.2     1  UNL1        0.3289
      6 N         140.1194  144.3817  170.4358 N.pl3   1  UNL1       -0.2454
      7 N         140.2670  142.9164  168.2050 N.2     1  UNL1       -0.0404
      8 H         140.5724  144.6859  171.2552 H       1  UNL1        0.2885
      9 H         139.2026  144.6819  170.2396 H       1  UNL1        0.2885
     10 C         138.2168  141.4568  164.3638 C.ar    1  UNL1        0.1307
     11 C         138.7811  140.2697  165.0865 C.ar    1  UNL1        0.0117
     12 C         138.3138  138.8876  164.7379 C.3     1  UNL1        0.0342
     13 C         139.8127  140.4646  166.1578 C.ar    1  UNL1        0.0008
     14 C         140.2801  141.8466  166.5065 C.ar    1  UNL1        0.0475
     15 C         139.7158  143.0337  165.7838 C.ar    1  UNL1        0.0008
     16 C         138.6842  142.8388  164.7124 C.ar    1  UNL1        0.0117
     17 C         138.1199  144.0260  163.9897 C.3     1  UNL1        0.0342
     18 C         137.6118  140.9580  161.8869 C.3     1  UNL1        0.2524
     19 O         137.1852  141.2618  163.2924 O.3     1  UNL1       -0.4721
     20 C         142.1406  141.1259  166.7266 C.ar    1  UNL1        0.0479
     21 C         142.6095  139.8112  167.2758 C.ar    1  UNL1        0.0021
     22 C         143.4384  138.8956  166.4247 C.ar    1  UNL1       -0.0001
     23 C         143.7985  139.2948  165.0244 C.ar    1  UNL1        0.0001
     24 C         143.3297  140.6094  164.4751 C.ar    1  UNL1        0.0029
     25 C         142.5008  141.5251  165.3263 C.ar    1  UNL1        0.0022
     26 C         143.6898  141.0085  163.0748 C.ar    1  UNL1        0.0384
     27 C         142.7530  140.7037  161.9436 C.ar    1  UNL1        0.1022
     28 N         143.1131  141.1029  160.5433 N.ar    1  UNL1       -0.2224
     29 C         144.4101  141.8068  160.2740 C.ar    1  UNL1        0.1989
     30 N         145.3469  142.1116  161.4052 N.ar    1  UNL1       -0.2224
     31 C         144.9868  141.7125  162.8056 C.ar    1  UNL1        0.1022
@<TRIPOS>BOND
     1    18    19    1
     2    19    10    1
     3    10    11   ar
     4    11    12    1
     5    11    13   ar
     6    13    14   ar
     7     1    14    1
     8     1    20    1
     9    20    21   ar
    10    21    22   ar
    11    22    23   ar
    12    23    24   ar
    13    24    26    1
    14    26    27   ar
    15    27    28   ar
    16    28    29   ar
    17    29    30   ar
    18    30    31   ar
    19    24    25   ar
    20     1     2    1
    21     2     3    2
    22     3     4    1
    23     3     5    1
    24     5     6    1
    25     5     7    2
    26    14    15   ar
    27    15    16   ar
    28    16    17    1
    29    16    10   ar
    30     7     1    1
    31    25    20   ar
    32    31    26   ar
    33     6     8    1
    34     6     9    1
@<TRIPOS>MOLECULE
*****
 31 34 0 0 0
SMALL
GASTEIGER

@<TRIPOS>ATOM
      1 C         141.1097  141.3628  166.9155 C.3     1  UNL1        0.2959
      2 N         141.1033  142.5238  167.8653 N.2     1  UNL1       -0.2191
      3 C         140.3185  142.1248  169.0798 C.2     1  UNL1        0.1399
      4 C         140.0580  142.9827  170.2824 C.3     1  UNL1        0.0598
      5 C         139.8398  140.7172  168.8805 C.2     1  UNL1        0.3289
      6 N         139.0166  139.9205  169.8488 N.pl3   1  UNL1       -0.2454
      7 N         140.3288  140.2463  167.5429 N.2     1  UNL1       -0.0404
      8 H         138.7429  140.3190  170.7065 H       1  UNL1        0.2885
      9 H         138.7501  138.9992  169.6268 H       1  UNL1        0.2885
     10 C         141.6418  138.4530  163.5244 C.ar    1  UNL1        0.1307
     11 C         142.8254  139.1988  164.0654 C.ar    1  UNL1        0.0117
     12 C         144.1865  138.9747  163.4761 C.3     1  UNL1        0.0342
     13 C         142.6481  140.1688  165.1958 C.ar    1  UNL1        0.0008
     14 C         141.2871  140.3929  165.7851 C.ar    1  UNL1        0.0475
     15 C         140.1034  139.6471  165.2441 C.ar    1  UNL1        0.0008
     16 C         140.2808  138.6772  164.1137 C.ar    1  UNL1        0.0117
     17 C         139.0971  137.9314  163.5727 C.3     1  UNL1        0.0342
     18 C         141.7590  137.9658  160.9751 C.3     1  UNL1        0.2524
     19 O         141.8192  137.4831  162.3940 O.3     1  UNL1       -0.4721
     20 C         141.9277  142.2766  166.0518 C.ar    1  UNL1        0.0479
     21 C         143.3540  142.5707  166.4111 C.ar    1  UNL1        0.0021
     22 C         144.1719  143.4843  165.5474 C.ar    1  UNL1       -0.0001
     23 C         143.5636  144.1040  164.3244 C.ar    1  UNL1        0.0001
     24 C         142.1373  143.8099  163.9650 C.ar    1  UNL1        0.0029
     25 C         141.3193  142.8962  164.8287 C.ar    1  UNL1        0.0022
     26 C         141.5290  144.4296  162.7419 C.ar    1  UNL1        0.0384
     27 C         142.2314  144.3265  161.4205 C.ar    1  UNL1        0.1022
     28 N         141.6231  144.9461  160.1974 N.ar    1  UNL1       -0.2224
     29 C         140.3123  145.6689  160.2957 C.ar    1  UNL1        0.1989
     30 N         139.6099  145.7720  161.6170 N.ar    1  UNL1       -0.2224
     31 C         140.2183  145.1523  162.8402 C.ar    1  UNL1        0.1022
@<TRIPOS>BOND
     1    18    19    1
     2    19    10    1
     3    10    11   ar
     4    11    12    1
     5    11    13   ar
     6    13    14   ar
     7     1    14    1
     8     1    20    1
     9    20    21   ar
    10    21    22   ar
    11    22    23   ar
    12    23    24   ar
    13    24    26    1
    14    26    27   ar
    15    27    28   ar
    16    28    29   ar
    17    29    30   ar
    18    30    31   ar
    19    24    25   ar
    20     1     2    1
    21     2     3    2
    22     3     4    1
    23     3     5    1
    24     5     6    1
    25     5     7    2
    26    14    15   ar
    27    15    16   ar
    28    16    17    1
    29    16    10   ar
    30     7     1    1
    31    25    20   ar
    32    31    26   ar
    33     6     8    1
    34     6     9    1
