@<TRIPOS>MOLECULE
*****
 29 33 0 0 0
SMALL
GASTEIGER

@<TRIPOS>ATOM
      1 C         140.8274  139.5292  164.3956 C.ar    1  UNL1        0.1452
      2 N         139.8170  139.9100  165.4367 N.ar    1  UNL1       -0.2289
      3 C         140.4825  139.8325  166.7787 C.ar    1  UNL1        0.0992
      4 C         139.9776  140.0969  168.1662 C.ar    1  UNL1        0.0320
      5 C         140.8945  139.9326  169.3420 C.ar    1  UNL1        0.0593
      6 CL        140.3895  140.1971  170.7295 Cl      1  UNL1       -0.0822
      7 C         142.3162  139.5039  169.1303 C.ar    1  UNL1        0.0130
      8 C         142.8211  139.2394  167.7428 C.ar    1  UNL1        0.0196
      9 C         141.9043  139.4038  166.5671 C.ar    1  UNL1        0.0787
     10 N         142.1174  139.2163  165.0942 N.ar    1  UNL1       -0.3131
     11 C         140.5896  139.4713  162.9156 C.3     1  UNL1        0.1908
     12 C         139.8031  143.0312  161.5837 C.ar    1  UNL1        0.2069
     13 N         140.3788  142.1204  162.6272 N.ar    1  UNL1       -0.1501
     14 N         140.1683  140.7058  162.1749 N.ar    1  UNL1       -0.2404
     15 C         139.4625  140.7423  160.8519 C.ar    1  UNL1        0.1003
     16 C         138.9961  139.6526  159.9327 C.ar    1  UNL1        0.1176
     17 N         138.3040  140.0001  158.6480 N.ar    1  UNL1       -0.2408
     18 C         138.0784  141.4373  158.2826 C.ar    1  UNL1        0.0991
     19 C         138.5447  142.5270  159.2018 C.ar    1  UNL1        0.0251
     20 C         139.2368  142.1795  160.4865 C.ar    1  UNL1        0.0572
     21 C         139.7871  146.0298  161.6750 C.3     1  UNL1        0.1835
     22 S         139.7952  144.5305  161.6294 S.O2    1  UNL1        0.0285
     23 O         141.1954  144.5543  161.0922 O.2     1  UNL1       -0.1671
     24 O         138.3948  144.5067  162.1665 O.2     1  UNL1       -0.1671
     25 C         143.3961  138.7906  164.4355 C.3     1  UNL1        0.1122
     26 C         144.2344  139.7971  163.7044 C.3     1  UNL1        0.0818
     27 C         144.3285  140.2670  162.2831 C.3     1  UNL1        0.1465
     28 O         145.4198  141.2204  162.6706 O.3     1  UNL1       -0.3535
     29 C         145.3257  140.7505  164.0920 C.3     1  UNL1        0.1465
@<TRIPOS>BOND
     1    21    22    1
     2    22    23    2
     3    22    24    2
     4    22    12    1
     5    12    13   ar
     6    13    14   ar
     7    14    11    1
     8    11     1    1
     9     1     2   ar
    10     2     3   ar
    11     3     4   ar
    12     4     5   ar
    13     5     6    1
    14     5     7   ar
    15     7     8   ar
    16     8     9   ar
    17     9    10   ar
    18    10    25    1
    19    25    26    1
    20    26    27    1
    21    27    28    1
    22    28    29    1
    23    14    15   ar
    24    15    16   ar
    25    16    17   ar
    26    17    18   ar
    27    18    19   ar
    28    19    20   ar
    29    20    12   ar
    30    10     1   ar
    31    29    26    1
    32    20    15   ar
    33     9     3   ar
@<TRIPOS>MOLECULE
*****
 29 33 0 0 0
SMALL
GASTEIGER

@<TRIPOS>ATOM
      1 C         141.7123  138.0476  162.2225 C.ar    1  UNL1        0.1452
      2 N         140.7154  137.1646  162.9127 N.ar    1  UNL1       -0.2289
      3 C         140.0716  137.9608  164.0088 C.ar    1  UNL1        0.0992
      4 C         139.0173  137.6113  165.0169 C.ar    1  UNL1        0.0320
      5 C         138.5620  138.6370  166.0123 C.ar    1  UNL1        0.0593
      6 CL        137.5077  138.2874  167.0204 Cl      1  UNL1       -0.0822
      7 C         139.1610  140.0121  165.9996 C.ar    1  UNL1        0.0130
      8 C         140.2154  140.3615  164.9915 C.ar    1  UNL1        0.0196
      9 C         140.6706  139.3359  163.9961 C.ar    1  UNL1        0.0787
     10 N         141.6847  139.3895  162.8921 N.ar    1  UNL1       -0.3131
     11 C         142.5839  137.6572  161.0657 C.3     1  UNL1        0.1908
     12 C         143.5990  140.0536  158.1862 C.ar    1  UNL1        0.2069
     13 N         143.9415  139.2585  159.4111 N.ar    1  UNL1       -0.1501
     14 N         142.6970  138.5604  159.8735 N.ar    1  UNL1       -0.2404
     15 C         141.5853  138.9241  158.9343 C.ar    1  UNL1        0.1003
     16 C         140.1375  138.5341  158.8940 C.ar    1  UNL1        0.1176
     17 N         139.2471  139.0670  157.8109 N.ar    1  UNL1       -0.2408
     18 C         139.8046  139.9899  156.7681 C.ar    1  UNL1        0.0991
     19 C         141.2524  140.3798  156.8084 C.ar    1  UNL1        0.0251
     20 C         142.1428  139.8469  157.8915 C.ar    1  UNL1        0.0572
     21 C         145.4937  141.7581  156.6034 C.3     1  UNL1        0.1835
     22 S         144.5463  140.9058  157.3948 S.O2    1  UNL1        0.0285
     23 O         144.9245  139.7149  156.5650 O.2     1  UNL1       -0.1671
     24 O         144.1681  142.0968  158.2246 O.2     1  UNL1       -0.1671
     25 C         142.5237  140.5767  162.5226 C.3     1  UNL1        0.1122
     26 C         143.8942  140.7387  163.1104 C.3     1  UNL1        0.0818
     27 C         144.7610  139.9209  164.0215 C.3     1  UNL1        0.1465
     28 O         145.8323  140.9678  163.9418 O.3     1  UNL1       -0.3535
     29 C         144.9656  141.7856  163.0308 C.3     1  UNL1        0.1465
@<TRIPOS>BOND
     1    21    22    1
     2    22    23    2
     3    22    24    2
     4    22    12    1
     5    12    13   ar
     6    13    14   ar
     7    14    11    1
     8    11     1    1
     9     1     2   ar
    10     2     3   ar
    11     3     4   ar
    12     4     5   ar
    13     5     6    1
    14     5     7   ar
    15     7     8   ar
    16     8     9   ar
    17     9    10   ar
    18    10    25    1
    19    25    26    1
    20    26    27    1
    21    27    28    1
    22    28    29    1
    23    14    15   ar
    24    15    16   ar
    25    16    17   ar
    26    17    18   ar
    27    18    19   ar
    28    19    20   ar
    29    20    12   ar
    30    10     1   ar
    31    29    26    1
    32    20    15   ar
    33     9     3   ar
@<TRIPOS>MOLECULE
*****
 29 33 0 0 0
SMALL
GASTEIGER

@<TRIPOS>ATOM
      1 C         141.0655  139.2296  164.2653 C.ar    1  UNL1        0.1452
      2 N         142.2970  139.1668  165.1194 N.ar    1  UNL1       -0.2289
      3 C         141.8931  139.4476  166.5364 C.ar    1  UNL1        0.0992
      4 C         142.6826  139.5186  167.8098 C.ar    1  UNL1        0.0320
      5 C         141.9910  139.8260  169.1049 C.ar    1  UNL1        0.0593
      6 CL        142.7806  139.8969  170.3783 Cl      1  UNL1       -0.0822
      7 C         140.5099  140.0624  169.1266 C.ar    1  UNL1        0.0130
      8 C         139.7204  139.9914  167.8532 C.ar    1  UNL1        0.0196
      9 C         140.4120  139.6840  166.5581 C.ar    1  UNL1        0.0787
     10 N         139.9005  139.5493  165.1544 N.ar    1  UNL1       -0.3131
     11 C         141.0090  139.0111  162.7823 C.3     1  UNL1        0.1908
     12 C         140.5227  142.4069  160.9664 C.ar    1  UNL1        0.2069
     13 N         140.9730  141.6090  162.1541 N.ar    1  UNL1       -0.1501
     14 N         140.7110  140.1605  161.8657 N.ar    1  UNL1       -0.2404
     15 C         140.0988  140.0631  160.4998 C.ar    1  UNL1        0.1003
     16 C         139.6322  138.8897  159.6903 C.ar    1  UNL1        0.1176
     17 N         139.0493  139.1045  158.3251 N.ar    1  UNL1       -0.2408
     18 C         138.9329  140.4929  157.7693 C.ar    1  UNL1        0.0991
     19 C         139.3994  141.6664  158.5787 C.ar    1  UNL1        0.0251
     20 C         139.9824  141.4515  159.9440 C.ar    1  UNL1        0.0572
     21 C         140.6758  145.3898  160.6851 C.3     1  UNL1        0.1835
     22 S         140.5992  143.8983  160.8257 S.O2    1  UNL1        0.0285
     23 O         139.1116  143.9905  160.9939 O.2     1  UNL1       -0.1671
     24 O         142.0869  143.8061  160.6576 O.2     1  UNL1       -0.1671
     25 C         138.4745  139.7066  164.7168 C.3     1  UNL1        0.1122
     26 C         138.0136  141.0001  164.1130 C.3     1  UNL1        0.0818
     27 C         137.3591  141.3944  162.8221 C.3     1  UNL1        0.1465
     28 O         137.3618  142.8293  163.2591 O.3     1  UNL1       -0.3535
     29 C         138.0163  142.4351  164.5500 C.3     1  UNL1        0.1465
@<TRIPOS>BOND
     1    21    22    1
     2    22    23    2
     3    22    24    2
     4    22    12    1
     5    12    13   ar
     6    13    14   ar
     7    14    11    1
     8    11     1    1
     9     1     2   ar
    10     2     3   ar
    11     3     4   ar
    12     4     5   ar
    13     5     6    1
    14     5     7   ar
    15     7     8   ar
    16     8     9   ar
    17     9    10   ar
    18    10    25    1
    19    25    26    1
    20    26    27    1
    21    27    28    1
    22    28    29    1
    23    14    15   ar
    24    15    16   ar
    25    16    17   ar
    26    17    18   ar
    27    18    19   ar
    28    19    20   ar
    29    20    12   ar
    30    10     1   ar
    31    29    26    1
    32    20    15   ar
    33     9     3   ar
@<TRIPOS>MOLECULE
*****
 29 33 0 0 0
SMALL
GASTEIGER

@<TRIPOS>ATOM
      1 C         140.2423  140.1740  164.4929 C.ar    1  UNL1        0.1452
      2 N         139.2977  140.3460  165.6453 N.ar    1  UNL1       -0.2289
      3 C         140.0744  140.1535  166.9140 C.ar    1  UNL1        0.0992
      4 C         139.6685  140.2056  168.3571 C.ar    1  UNL1        0.0320
      5 C         140.6873  139.9668  169.4318 C.ar    1  UNL1        0.0593
      6 CL        140.2813  140.0188  170.8749 Cl      1  UNL1       -0.0822
      7 C         142.1119  139.6759  169.0636 C.ar    1  UNL1        0.0130
      8 C         142.5178  139.6238  167.6205 C.ar    1  UNL1        0.0196
      9 C         141.4991  139.8627  166.5457 C.ar    1  UNL1        0.0787
     10 N         141.6029  139.8753  165.0494 N.ar    1  UNL1       -0.3131
     11 C         139.8885  140.2819  163.0391 C.3     1  UNL1        0.1908
     12 C         141.7430  142.6162  160.5539 C.ar    1  UNL1        0.2069
     13 N         141.4616  141.2508  161.1074 N.ar    1  UNL1       -0.1501
     14 N         140.4550  141.3961  162.2100 N.ar    1  UNL1       -0.2404
     15 C         140.1144  142.8513  162.3380 C.ar    1  UNL1        0.1003
     16 C         139.1823  143.5872  163.2542 C.ar    1  UNL1        0.1176
     17 N         139.0462  145.0771  163.1470 N.ar    1  UNL1       -0.2408
     18 C         139.8422  145.8312  162.1234 C.ar    1  UNL1        0.0991
     19 C         140.7744  145.0954  161.2071 C.ar    1  UNL1        0.0251
     20 C         140.9105  143.6054  161.3144 C.ar    1  UNL1        0.0572
     21 C         143.6385  143.2565  158.3184 C.3     1  UNL1        0.1835
     22 S         142.6907  142.9363  159.4361 S.O2    1  UNL1        0.0285
     23 O         141.6582  142.5052  158.4372 O.2     1  UNL1       -0.1671
     24 O         143.7233  143.3675  160.4351 O.2     1  UNL1       -0.1671
     25 C         142.8484  139.6320  164.2498 C.3     1  UNL1        0.1122
     26 C         143.7834  140.7671  163.9539 C.3     1  UNL1        0.0818
     27 C         145.2396  140.8801  163.6119 C.3     1  UNL1        0.1465
     28 O         145.1057  142.3722  163.5355 O.3     1  UNL1       -0.3535
     29 C         143.6496  142.2592  163.8775 C.3     1  UNL1        0.1465
@<TRIPOS>BOND
     1    21    22    1
     2    22    23    2
     3    22    24    2
     4    22    12    1
     5    12    13   ar
     6    13    14   ar
     7    14    11    1
     8    11     1    1
     9     1     2   ar
    10     2     3   ar
    11     3     4   ar
    12     4     5   ar
    13     5     6    1
    14     5     7   ar
    15     7     8   ar
    16     8     9   ar
    17     9    10   ar
    18    10    25    1
    19    25    26    1
    20    26    27    1
    21    27    28    1
    22    28    29    1
    23    14    15   ar
    24    15    16   ar
    25    16    17   ar
    26    17    18   ar
    27    18    19   ar
    28    19    20   ar
    29    20    12   ar
    30    10     1   ar
    31    29    26    1
    32    20    15   ar
    33     9     3   ar
@<TRIPOS>MOLECULE
*****
 29 33 0 0 0
SMALL
GASTEIGER

@<TRIPOS>ATOM
      1 C         143.3912  138.7686  164.1701 C.ar    1  UNL1        0.1452
      2 N         144.2591  139.3094  163.0727 N.ar    1  UNL1       -0.2289
      3 C         143.5473  139.0938  161.7700 C.ar    1  UNL1        0.0992
      4 C         143.9211  139.4242  160.3554 C.ar    1  UNL1        0.0320
      5 C         142.9871  139.0805  159.2331 C.ar    1  UNL1        0.0593
      6 CL        143.3609  139.4109  157.8185 Cl      1  UNL1       -0.0822
      7 C         141.6793  138.4066  159.5254 C.ar    1  UNL1        0.0130
      8 C         141.3055  138.0763  160.9400 C.ar    1  UNL1        0.0196
      9 C         142.2396  138.4199  162.0623 C.ar    1  UNL1        0.0787
     10 N         142.1431  138.2189  163.5457 N.ar    1  UNL1       -0.3131
     11 C         143.7147  138.7763  165.6348 C.3     1  UNL1        0.1908
     12 C         141.8691  140.4662  168.6018 C.ar    1  UNL1        0.2069
     13 N         142.7778  139.4037  168.0584 N.ar    1  UNL1       -0.1501
     14 N         142.9015  139.6123  166.5781 N.ar    1  UNL1       -0.2404
     15 C         142.0692  140.8036  166.2067 C.ar    1  UNL1        0.1003
     16 C         141.8100  141.4761  164.8913 C.ar    1  UNL1        0.1176
     17 N         140.9126  142.6763  164.8265 N.ar    1  UNL1       -0.2408
     18 C         140.2745  143.2041  166.0773 C.ar    1  UNL1        0.0991
     19 C         140.5338  142.5316  167.3927 C.ar    1  UNL1        0.0251
     20 C         141.4312  141.3314  167.4575 C.ar    1  UNL1        0.0572
     21 C         141.0682  140.8019  171.4734 C.3     1  UNL1        0.1835
     22 S         141.4686  140.6340  170.0376 S.O2    1  UNL1        0.0285
     23 O         140.3729  139.6271  169.8497 O.2     1  UNL1       -0.1671
     24 O         142.5644  141.6409  170.2256 O.2     1  UNL1       -0.1671
     25 C         140.9993  137.5803  164.2763 C.3     1  UNL1        0.1122
     26 C         139.7879  138.3917  164.6289 C.3     1  UNL1        0.0818
     27 C         139.0681  138.7247  165.9021 C.3     1  UNL1        0.1465
     28 O         138.0748  139.5391  165.1274 O.3     1  UNL1       -0.3535
     29 C         138.7945  139.2061  163.8542 C.3     1  UNL1        0.1465
@<TRIPOS>BOND
     1    21    22    1
     2    22    23    2
     3    22    24    2
     4    22    12    1
     5    12    13   ar
     6    13    14   ar
     7    14    11    1
     8    11     1    1
     9     1     2   ar
    10     2     3   ar
    11     3     4   ar
    12     4     5   ar
    13     5     6    1
    14     5     7   ar
    15     7     8   ar
    16     8     9   ar
    17     9    10   ar
    18    10    25    1
    19    25    26    1
    20    26    27    1
    21    27    28    1
    22    28    29    1
    23    14    15   ar
    24    15    16   ar
    25    16    17   ar
    26    17    18   ar
    27    18    19   ar
    28    19    20   ar
    29    20    12   ar
    30    10     1   ar
    31    29    26    1
    32    20    15   ar
    33     9     3   ar
@<TRIPOS>MOLECULE
*****
 29 33 0 0 0
SMALL
GASTEIGER

@<TRIPOS>ATOM
      1 C         141.3291  139.8509  164.7184 C.ar    1  UNL1        0.1452
      2 N         142.4910  139.9037  165.6655 N.ar    1  UNL1       -0.2289
      3 C         141.9479  139.9809  167.0616 C.ar    1  UNL1        0.0992
      4 C         142.6236  140.0552  168.3987 C.ar    1  UNL1        0.0320
      5 C         141.8017  140.1245  169.6515 C.ar    1  UNL1        0.0593
      6 CL        142.4774  140.1987  170.9887 Cl      1  UNL1       -0.0822
      7 C         140.3041  140.1194  169.5673 C.ar    1  UNL1        0.0130
      8 C         139.6284  140.0451  168.2302 C.ar    1  UNL1        0.0196
      9 C         140.4503  139.9759  166.9773 C.ar    1  UNL1        0.0787
     10 N         140.0678  139.8955  165.5291 N.ar    1  UNL1       -0.3131
     11 C         141.4135  139.7680  163.2230 C.3     1  UNL1        0.1908
     12 C         140.1894  142.3063  160.5540 C.ar    1  UNL1        0.2069
     13 N         140.4044  140.8969  161.0202 N.ar    1  UNL1       -0.1501
     14 N         141.0280  140.9497  162.3834 N.ar    1  UNL1       -0.2404
     15 C         141.1984  142.3918  162.7597 C.ar    1  UNL1        0.1003
     16 C         141.7585  143.0497  163.9857 C.ar    1  UNL1        0.1176
     17 N         141.8004  144.5460  164.0811 N.ar    1  UNL1       -0.2408
     18 C         141.2821  145.3844  162.9504 C.ar    1  UNL1        0.0991
     19 C         140.7220  144.7265  161.7244 C.ar    1  UNL1        0.0251
     20 C         140.6801  143.2302  161.6290 C.ar    1  UNL1        0.0572
     21 C         138.9886  143.1324  157.9317 C.3     1  UNL1        0.1835
     22 S         139.5891  142.7193  159.2428 S.O2    1  UNL1        0.0285
     23 O         140.9046  142.4773  158.5642 O.2     1  UNL1       -0.1671
     24 O         138.2734  142.9614  159.9215 O.2     1  UNL1       -0.1671
     25 C         138.6697  139.8651  164.9869 C.3     1  UNL1        0.1122
     26 C         138.1221  141.0560  164.2574 C.3     1  UNL1        0.0818
     27 C         137.4204  141.2675  162.9486 C.3     1  UNL1        0.1465
     28 O         137.3477  142.7399  163.2257 O.3     1  UNL1       -0.3535
     29 C         138.0493  142.5284  164.5345 C.3     1  UNL1        0.1465
@<TRIPOS>BOND
     1    21    22    1
     2    22    23    2
     3    22    24    2
     4    22    12    1
     5    12    13   ar
     6    13    14   ar
     7    14    11    1
     8    11     1    1
     9     1     2   ar
    10     2     3   ar
    11     3     4   ar
    12     4     5   ar
    13     5     6    1
    14     5     7   ar
    15     7     8   ar
    16     8     9   ar
    17     9    10   ar
    18    10    25    1
    19    25    26    1
    20    26    27    1
    21    27    28    1
    22    28    29    1
    23    14    15   ar
    24    15    16   ar
    25    16    17   ar
    26    17    18   ar
    27    18    19   ar
    28    19    20   ar
    29    20    12   ar
    30    10     1   ar
    31    29    26    1
    32    20    15   ar
    33     9     3   ar
@<TRIPOS>MOLECULE
*****
 29 33 0 0 0
SMALL
GASTEIGER

@<TRIPOS>ATOM
      1 C         142.8738  143.2833  164.6126 C.ar    1  UNL1        0.1452
      2 N         143.5626  142.2709  165.4789 N.ar    1  UNL1       -0.2289
      3 C         142.5666  141.7615  166.4781 C.ar    1  UNL1        0.0992
      4 C         142.6788  140.7526  167.5824 C.ar    1  UNL1        0.0320
      5 C         141.4867  140.4413  168.4379 C.ar    1  UNL1        0.0593
      6 CL        141.5991  139.4323  169.5422 Cl      1  UNL1       -0.0822
      7 C         140.1823  141.1388  168.1892 C.ar    1  UNL1        0.0130
      8 C         140.0701  142.1477  167.0849 C.ar    1  UNL1        0.0196
      9 C         141.2622  142.4590  166.2294 C.ar    1  UNL1        0.0787
     10 N         141.4520  143.3996  165.0764 N.ar    1  UNL1       -0.3131
     11 C         143.4972  144.0455  163.4810 C.3     1  UNL1        0.1908
     12 C         141.7921  144.3939  160.0117 C.ar    1  UNL1        0.2069
     13 N         142.1317  144.9430  161.3656 N.ar    1  UNL1       -0.1501
     14 N         142.9443  143.9131  162.0929 N.ar    1  UNL1       -0.2404
     15 C         143.1071  142.7276  161.1884 C.ar    1  UNL1        0.1003
     16 C         143.8117  141.4159  161.3699 C.ar    1  UNL1        0.1176
     17 N         143.8042  140.4014  160.2651 N.ar    1  UNL1       -0.2408
     18 C         143.0921  140.6986  158.9788 C.ar    1  UNL1        0.0991
     19 C         142.3875  142.0103  158.7973 C.ar    1  UNL1        0.0251
     20 C         142.3950  143.0248  159.9021 C.ar    1  UNL1        0.0572
     21 C         140.1888  145.7892  157.8944 C.3     1  UNL1        0.1835
     22 S         140.9905  145.0916  158.9530 S.O2    1  UNL1        0.0285
     23 O         142.2547  145.6249  158.3472 O.2     1  UNL1       -0.1671
     24 O         139.7262  144.5582  159.5589 O.2     1  UNL1       -0.1671
     25 C         140.4042  144.2986  164.4901 C.3     1  UNL1        0.1122
     26 C         139.3996  143.7476  163.5218 C.3     1  UNL1        0.0818
     27 C         139.4001  142.6436  162.5063 C.3     1  UNL1        0.1465
     28 O         137.9791  142.9686  162.1525 O.3     1  UNL1       -0.3535
     29 C         137.9786  144.0726  163.1680 C.3     1  UNL1        0.1465
@<TRIPOS>BOND
     1    21    22    1
     2    22    23    2
     3    22    24    2
     4    22    12    1
     5    12    13   ar
     6    13    14   ar
     7    14    11    1
     8    11     1    1
     9     1     2   ar
    10     2     3   ar
    11     3     4   ar
    12     4     5   ar
    13     5     6    1
    14     5     7   ar
    15     7     8   ar
    16     8     9   ar
    17     9    10   ar
    18    10    25    1
    19    25    26    1
    20    26    27    1
    21    27    28    1
    22    28    29    1
    23    14    15   ar
    24    15    16   ar
    25    16    17   ar
    26    17    18   ar
    27    18    19   ar
    28    19    20   ar
    29    20    12   ar
    30    10     1   ar
    31    29    26    1
    32    20    15   ar
    33     9     3   ar
@<TRIPOS>MOLECULE
*****
 29 33 0 0 0
SMALL
GASTEIGER

@<TRIPOS>ATOM
      1 C         139.6669  138.7525  165.3353 C.ar    1  UNL1        0.1452
      2 N         138.9630  139.4614  166.4541 N.ar    1  UNL1       -0.2289
      3 C         139.9993  139.9203  167.4367 C.ar    1  UNL1        0.0992
      4 C         139.8925  140.6705  168.7312 C.ar    1  UNL1        0.0320
      5 C         141.1300  140.9954  169.5141 C.ar    1  UNL1        0.0593
      6 CL        141.0231  141.7457  170.8086 Cl      1  UNL1       -0.0822
      7 C         142.4744  140.5701  169.0025 C.ar    1  UNL1        0.0130
      8 C         142.5812  139.8199  167.7080 C.ar    1  UNL1        0.0196
      9 C         141.3436  139.4950  166.9251 C.ar    1  UNL1        0.0787
     10 N         141.1382  138.7732  165.6263 N.ar    1  UNL1       -0.3131
     11 C         139.0140  138.1317  164.1358 C.3     1  UNL1        0.1908
     12 C         140.0453  138.9428  160.4829 C.ar    1  UNL1        0.2069
     13 N         140.0426  138.0269  161.6709 N.ar    1  UNL1       -0.1501
     14 N         139.2680  138.6940  162.7686 N.ar    1  UNL1       -0.2404
     15 C         138.7920  140.0221  162.2591 C.ar    1  UNL1        0.1003
     16 C         137.9831  141.1112  162.8989 C.ar    1  UNL1        0.1176
     17 N         137.6546  142.3541  162.1261 N.ar    1  UNL1       -0.2408
     18 C         138.1351  142.5079  160.7135 C.ar    1  UNL1        0.0991
     19 C         138.9439  141.4187  160.0736 C.ar    1  UNL1        0.0251
     20 C         139.2724  140.1758  160.8464 C.ar    1  UNL1        0.0572
     21 C         141.3649  138.4031  157.8433 C.3     1  UNL1        0.1835
     22 S         140.7051  138.6729  159.1631 S.O2    1  UNL1        0.0285
     23 O         142.0315  139.0597  159.7471 O.2     1  UNL1       -0.1671
     24 O         139.3788  138.2861  158.5791 O.2     1  UNL1       -0.1671
     25 C         142.2150  138.1769  164.7691 C.3     1  UNL1        0.1122
     26 C         143.2245  139.0664  164.1060 C.3     1  UNL1        0.0818
     27 C         143.2115  139.9866  162.9214 C.3     1  UNL1        0.1465
     28 O         144.6520  140.3244  163.1681 O.3     1  UNL1       -0.3535
     29 C         144.6650  139.4042  164.3527 C.3     1  UNL1        0.1465
@<TRIPOS>BOND
     1    21    22    1
     2    22    23    2
     3    22    24    2
     4    22    12    1
     5    12    13   ar
     6    13    14   ar
     7    14    11    1
     8    11     1    1
     9     1     2   ar
    10     2     3   ar
    11     3     4   ar
    12     4     5   ar
    13     5     6    1
    14     5     7   ar
    15     7     8   ar
    16     8     9   ar
    17     9    10   ar
    18    10    25    1
    19    25    26    1
    20    26    27    1
    21    27    28    1
    22    28    29    1
    23    14    15   ar
    24    15    16   ar
    25    16    17   ar
    26    17    18   ar
    27    18    19   ar
    28    19    20   ar
    29    20    12   ar
    30    10     1   ar
    31    29    26    1
    32    20    15   ar
    33     9     3   ar
@<TRIPOS>MOLECULE
*****
 29 33 0 0 0
SMALL
GASTEIGER

@<TRIPOS>ATOM
      1 C         139.0000  140.1507  165.3728 C.ar    1  UNL1        0.1452
      2 N         138.8884  139.4700  166.7048 N.ar    1  UNL1       -0.2289
      3 C         139.5654  140.3356  167.7258 C.ar    1  UNL1        0.0992
      4 C         139.7678  140.1739  169.2032 C.ar    1  UNL1        0.0320
      5 C         140.5001  141.2278  169.9797 C.ar    1  UNL1        0.0593
      6 CL        140.7025  141.0660  171.4572 Cl      1  UNL1       -0.0822
      7 C         141.0301  142.4434  169.2788 C.ar    1  UNL1        0.0130
      8 C         140.8278  142.6051  167.8014 C.ar    1  UNL1        0.0196
      9 C         140.0954  141.5512  167.0249 C.ar    1  UNL1        0.0787
     10 N         139.7460  141.4369  165.5706 N.ar    1  UNL1       -0.3131
     11 C         138.4603  139.6356  164.0714 C.3     1  UNL1        0.1908
     12 C         141.3278  139.2557  161.4832 C.ar    1  UNL1        0.2069
     13 N         140.8360  139.2760  162.9002 N.ar    1  UNL1       -0.1501
     14 N         139.3587  139.5343  162.8744 N.ar    1  UNL1       -0.2404
     15 C         138.9373  139.6737  161.4416 C.ar    1  UNL1        0.1003
     16 C         137.6028  139.9351  160.8087 C.ar    1  UNL1        0.1176
     17 N         137.4852  140.0244  159.3161 N.ar    1  UNL1       -0.2408
     18 C         138.7022  139.8522  158.4562 C.ar    1  UNL1        0.0991
     19 C         140.0367  139.5907  159.0891 C.ar    1  UNL1        0.0251
     20 C         140.1543  139.5015  160.5818 C.ar    1  UNL1        0.0572
     21 C         144.1608  138.8031  160.6061 C.3     1  UNL1        0.1835
     22 S         142.7442  139.0294  161.0447 S.O2    1  UNL1        0.0285
     23 O         142.4516  137.5709  160.8522 O.2     1  UNL1       -0.1671
     24 O         143.0369  140.4879  161.2371 O.2     1  UNL1       -0.1671
     25 C         140.0832  142.4339  164.5018 C.3     1  UNL1        0.1122
     26 C         138.9947  143.2408  163.8584 C.3     1  UNL1        0.0818
     27 C         138.2491  143.1704  162.5587 C.3     1  UNL1        0.1465
     28 O         137.4553  144.3820  162.9485 O.3     1  UNL1       -0.3535
     29 C         138.2009  144.4525  164.2482 C.3     1  UNL1        0.1465
@<TRIPOS>BOND
     1    21    22    1
     2    22    23    2
     3    22    24    2
     4    22    12    1
     5    12    13   ar
     6    13    14   ar
     7    14    11    1
     8    11     1    1
     9     1     2   ar
    10     2     3   ar
    11     3     4   ar
    12     4     5   ar
    13     5     6    1
    14     5     7   ar
    15     7     8   ar
    16     8     9   ar
    17     9    10   ar
    18    10    25    1
    19    25    26    1
    20    26    27    1
    21    27    28    1
    22    28    29    1
    23    14    15   ar
    24    15    16   ar
    25    16    17   ar
    26    17    18   ar
    27    18    19   ar
    28    19    20   ar
    29    20    12   ar
    30    10     1   ar
    31    29    26    1
    32    20    15   ar
    33     9     3   ar
