@<TRIPOS>MOLECULE
*****
 37 41 0 0 0
SMALL
GASTEIGER

@<TRIPOS>ATOM
      1 N         142.8205  137.5205  157.6743 N.am    1  UNL1       -0.2999
      2 C         143.5737  138.4764  156.7974 C.2     1  UNL1        0.2701
      3 O         144.1037  139.7586  157.3673 O.2     1  UNL1       -0.2706
      4 H         142.4726  136.6790  157.3002 H       1  UNL1        0.1496
      5 N         142.2817  138.3087  161.1675 N.3     1  UNL1       -0.2711
      6 C         141.5065  138.5196  159.9008 C.3     1  UNL1        0.0933
      7 C         142.5974  137.8470  159.1212 C.3     1  UNL1        0.1035
      8 C         143.3725  137.6361  160.3879 C.3     1  UNL1        0.0933
      9 C         141.6122  139.2881  165.5083 C.3     1  UNL1        0.0240
     10 C         142.3019  140.2756  164.6143 C.3     1  UNL1        0.0058
     11 C         142.5251  139.9491  163.1675 C.3     1  UNL1        0.0163
     12 C         142.0585  138.6352  162.6145 C.3     1  UNL1        0.0576
     13 C         141.3688  137.6477  163.5084 C.3     1  UNL1        0.0163
     14 C         141.1456  137.9741  164.9553 C.3     1  UNL1        0.0058
     15 C         140.7195  140.5944  171.2959 C.3     1  UNL1        0.0521
     16 C         140.9427  140.2678  169.8490 C.ar    1  UNL1        0.0594
     17 C         139.8027  140.3483  168.8775 C.ar    1  UNL1        0.0144
     18 C         140.0259  140.0218  167.4306 C.ar    1  UNL1       -0.0015
     19 C         141.3891  139.6146  166.9552 C.ar    1  UNL1       -0.0034
     20 C         142.5291  139.5341  167.9268 C.ar    1  UNL1        0.0941
     21 N         142.3059  139.8607  169.3737 N.ar    1  UNL1       -0.2485
     22 C         143.7968  138.1499  155.3504 C.3     1  UNL1        0.2850
     23 N         144.1818  136.7575  154.9464 N.pl3   1  UNL1       -0.2091
     24 H         145.1315  136.5198  154.8426 H       1  UNL1        0.2928
     25 C         143.1196  135.7272  154.7006 C.2     1  UNL1        0.3493
     26 N         141.9150  135.8950  153.8227 N.2     1  UNL1        0.0798
     27 N         141.1265  134.6197  153.8691 N.2     1  UNL1       -0.0381
     28 C         141.8438  133.6639  154.7757 C.2     1  UNL1        0.1169
     29 C         141.5345  132.2588  155.1996 C.3     1  UNL1        0.0759
     30 C         142.4570  131.5381  156.1374 C.2     1  UNL1       -0.0158
     31 C         143.6888  132.2226  156.6514 C.2     1  UNL1        0.0678
     32 C         143.9981  133.6277  156.2274 C.2     1  UNL1        0.0123
     33 C         143.0757  134.3484  155.2896 C.2     1  UNL1        0.1019
     34 C         144.6113  131.5018  157.5892 C.3     1  UNL1        0.4183
     35 F         145.5338  130.7811  158.5271 F       1  UNL1       -0.1659
     36 F         144.2866  130.2038  156.9112 F       1  UNL1       -0.1659
     37 F         144.9360  132.7998  158.2673 F       1  UNL1       -0.1659
@<TRIPOS>BOND
     1    15    16    1
     2    16    17   ar
     3    17    18   ar
     4    18    19   ar
     5     9    19    1
     6     9    10    1
     7    10    11    1
     8    11    12    1
     9    12     5    1
    10     5     6    1
    11     6     7    1
    12     7     1    1
    13     1     2   am
    14     2     3    2
    15     2    22    1
    16    22    23    1
    17    23    25    1
    18    25    26    2
    19    26    27    1
    20    27    28    2
    21    28    29    1
    22    29    30    1
    23    30    31    2
    24    31    34    1
    25    34    35    1
    26    34    36    1
    27    34    37    1
    28    31    32    1
    29    32    33    2
    30     7     8    1
    31    12    13    1
    32    13    14    1
    33    19    20   ar
    34    20    21   ar
    35    21    16   ar
    36    14     9    1
    37     8     5    1
    38    33    25    1
    39    33    28    1
    40     1     4    1
    41    23    24    1
@<TRIPOS>MOLECULE
*****
 37 41 0 0 0
SMALL
GASTEIGER

@<TRIPOS>ATOM
      1 N         137.3914  140.2484  157.5933 N.am    1  UNL1       -0.2999
      2 C         137.1693  141.5890  156.9583 C.2     1  UNL1        0.2701
      3 O         137.5282  142.8405  157.7032 O.2     1  UNL1       -0.2706
      4 H         137.1558  139.4270  157.1043 H       1  UNL1        0.1496
      5 N         138.7940  140.0332  160.9250 N.3     1  UNL1       -0.2711
      6 C         137.4073  140.0020  160.3539 C.3     1  UNL1        0.0933
      7 C         137.9724  140.1592  158.9733 C.3     1  UNL1        0.1035
      8 C         139.3590  140.1904  159.5444 C.3     1  UNL1        0.0933
      9 C         140.5371  139.7658  165.0651 C.3     1  UNL1        0.0240
     10 C         140.2403  141.1066  164.4613 C.3     1  UNL1        0.0058
     11 C         139.6594  141.1957  163.0814 C.3     1  UNL1        0.0163
     12 C         139.3750  139.9441  162.3050 C.3     1  UNL1        0.0576
     13 C         139.6717  138.6034  162.9088 C.3     1  UNL1        0.0163
     14 C         140.2527  138.5143  164.2888 C.3     1  UNL1        0.0058
     15 C         142.8608  139.4100  170.5854 C.3     1  UNL1        0.0521
     16 C         142.2799  139.4989  169.2053 C.ar    1  UNL1        0.0594
     17 C         140.8922  140.0333  169.0088 C.ar    1  UNL1        0.0144
     18 C         140.3113  140.1222  167.6287 C.ar    1  UNL1       -0.0015
     19 C         141.1181  139.6768  166.4451 C.ar    1  UNL1       -0.0034
     20 C         142.5058  139.1425  166.6417 C.ar    1  UNL1        0.0941
     21 N         143.0867  139.0535  168.0218 N.ar    1  UNL1       -0.2485
     22 C         136.5882  141.6781  155.5782 C.3     1  UNL1        0.2850
     23 N         135.1063  141.8235  155.3963 N.pl3   1  UNL1       -0.2091
     24 H         134.7428  142.6081  154.9257 H       1  UNL1        0.2928
     25 C         134.1785  140.7734  155.9314 C.2     1  UNL1        0.3493
     26 N         134.5864  139.4967  156.6050 N.2     1  UNL1        0.0798
     27 N         133.3398  138.7499  156.9767 N.2     1  UNL1       -0.0381
     28 C         132.1614  139.5650  156.5328 C.2     1  UNL1        0.1169
     29 C         130.6834  139.3299  156.6334 C.3     1  UNL1        0.0759
     30 C         129.7237  140.3455  156.0879 C.2     1  UNL1       -0.0158
     31 C         130.2420  141.5961  155.4418 C.2     1  UNL1        0.0678
     32 C         131.7200  141.8311  155.3412 C.2     1  UNL1        0.0123
     33 C         132.6797  140.8155  155.8867 C.2     1  UNL1        0.1019
     34 C         129.2822  142.6117  154.8963 C.3     1  UNL1        0.4183
     35 F         128.3225  143.6272  154.3509 F       1  UNL1       -0.1659
     36 F         128.3943  141.5078  154.4033 F       1  UNL1       -0.1659
     37 F         130.1701  143.7155  155.3894 F       1  UNL1       -0.1659
@<TRIPOS>BOND
     1    15    16    1
     2    16    17   ar
     3    17    18   ar
     4    18    19   ar
     5     9    19    1
     6     9    10    1
     7    10    11    1
     8    11    12    1
     9    12     5    1
    10     5     6    1
    11     6     7    1
    12     7     1    1
    13     1     2   am
    14     2     3    2
    15     2    22    1
    16    22    23    1
    17    23    25    1
    18    25    26    2
    19    26    27    1
    20    27    28    2
    21    28    29    1
    22    29    30    1
    23    30    31    2
    24    31    34    1
    25    34    35    1
    26    34    36    1
    27    34    37    1
    28    31    32    1
    29    32    33    2
    30     7     8    1
    31    12    13    1
    32    13    14    1
    33    19    20   ar
    34    20    21   ar
    35    21    16   ar
    36    14     9    1
    37     8     5    1
    38    33    25    1
    39    33    28    1
    40     1     4    1
    41    23    24    1
@<TRIPOS>MOLECULE
*****
 37 41 0 0 0
SMALL
GASTEIGER

@<TRIPOS>ATOM
      1 N         143.1541  143.9269  161.0230 N.am    1  UNL1       -0.2999
      2 C         143.1592  143.8676  162.5218 C.2     1  UNL1        0.2701
      3 O         143.1265  142.5404  163.2199 O.2     1  UNL1       -0.2706
      4 H         143.1755  144.7980  160.5647 H       1  UNL1        0.1496
      5 N         143.0631  140.8659  159.0901 N.3     1  UNL1       -0.2711
      6 C         142.0801  141.9569  159.3957 C.3     1  UNL1        0.0933
      7 C         143.1165  142.6590  160.2224 C.3     1  UNL1        0.1035
      8 C         144.0994  141.5680  159.9167 C.3     1  UNL1        0.0933
      9 C         142.9501  137.0622  156.6882 C.3     1  UNL1        0.0240
     10 C         142.6248  137.0347  158.1523 C.3     1  UNL1        0.0058
     11 C         142.6624  138.3026  158.9528 C.3     1  UNL1        0.0163
     12 C         143.0255  139.5980  158.2894 C.3     1  UNL1        0.0576
     13 C         143.3508  139.6255  156.8254 C.3     1  UNL1        0.0163
     14 C         143.3132  138.3576  156.0248 C.3     1  UNL1        0.0058
     15 C         142.7992  131.9905  153.4859 C.3     1  UNL1        0.0521
     16 C         142.8370  133.2584  154.2865 C.ar    1  UNL1        0.0594
     17 C         142.2587  134.5209  153.7194 C.ar    1  UNL1        0.0144
     18 C         142.2964  135.7888  154.5200 C.ar    1  UNL1       -0.0015
     19 C         142.9125  135.7942  155.8877 C.ar    1  UNL1       -0.0034
     20 C         143.4907  134.5317  156.4548 C.ar    1  UNL1        0.0941
     21 N         143.4530  133.2638  155.6541 N.ar    1  UNL1       -0.2485
     22 C         143.1968  145.1355  163.3224 C.3     1  UNL1        0.2850
     23 N         141.9219  145.8577  163.6438 N.pl3   1  UNL1       -0.2091
     24 H         141.9497  146.7105  164.1349 H       1  UNL1        0.2928
     25 C         140.6048  145.2804  163.2171 C.2     1  UNL1        0.3493
     26 N         139.7543  145.7690  162.0823 N.2     1  UNL1        0.0798
     27 N         138.5309  144.9038  162.0141 N.2     1  UNL1       -0.0381
     28 C         138.6254  143.8804  163.1068 C.2     1  UNL1        0.1169
     29 C         137.7099  142.7667  163.5207 C.3     1  UNL1        0.0759
     30 C         138.0762  141.8858  164.6782 C.2     1  UNL1       -0.0158
     31 C         139.3580  142.1186  165.4217 C.2     1  UNL1        0.0678
     32 C         140.2735  143.2323  165.0077 C.2     1  UNL1        0.0123
     33 C         139.9072  144.1132  163.8502 C.2     1  UNL1        0.1019
     34 C         139.7242  141.2376  166.5792 C.3     1  UNL1        0.4183
     35 F         140.0905  140.3567  167.7367 F       1  UNL1       -0.1659
     36 F         138.7466  140.2047  166.1024 F       1  UNL1       -0.1659
     37 F         140.7019  142.2705  167.0559 F       1  UNL1       -0.1659
@<TRIPOS>BOND
     1    15    16    1
     2    16    17   ar
     3    17    18   ar
     4    18    19   ar
     5     9    19    1
     6     9    10    1
     7    10    11    1
     8    11    12    1
     9    12     5    1
    10     5     6    1
    11     6     7    1
    12     7     1    1
    13     1     2   am
    14     2     3    2
    15     2    22    1
    16    22    23    1
    17    23    25    1
    18    25    26    2
    19    26    27    1
    20    27    28    2
    21    28    29    1
    22    29    30    1
    23    30    31    2
    24    31    34    1
    25    34    35    1
    26    34    36    1
    27    34    37    1
    28    31    32    1
    29    32    33    2
    30     7     8    1
    31    12    13    1
    32    13    14    1
    33    19    20   ar
    34    20    21   ar
    35    21    16   ar
    36    14     9    1
    37     8     5    1
    38    33    25    1
    39    33    28    1
    40     1     4    1
    41    23    24    1
@<TRIPOS>MOLECULE
*****
 37 41 0 0 0
SMALL
GASTEIGER

@<TRIPOS>ATOM
      1 N         137.6476  140.2184  157.6529 N.am    1  UNL1       -0.2999
      2 C         138.6908  139.8093  156.6558 C.2     1  UNL1        0.2701
      3 O         140.0939  139.5331  157.1087 O.2     1  UNL1       -0.2706
      4 H         136.7268  140.3996  157.3556 H       1  UNL1        0.1496
      5 N         138.5165  140.5392  161.1538 N.3     1  UNL1       -0.2711
      6 C         138.0673  139.4124  160.2714 C.3     1  UNL1        0.0933
      7 C         138.0075  140.3513  159.1030 C.3     1  UNL1        0.1035
      8 C         138.4567  141.4780  159.9854 C.3     1  UNL1        0.0933
      9 C         139.5962  140.9380  165.5041 C.3     1  UNL1        0.0240
     10 C         140.6758  140.9078  164.4630 C.3     1  UNL1        0.0058
     11 C         140.3158  140.7749  163.0130 C.3     1  UNL1        0.0163
     12 C         138.8764  140.6721  162.6039 C.3     1  UNL1        0.0576
     13 C         137.7968  140.7023  163.6449 C.3     1  UNL1        0.0163
     14 C         138.1568  140.8352  165.0950 C.3     1  UNL1        0.0058
     15 C         141.0364  141.4701  171.3043 C.3     1  UNL1        0.0521
     16 C         140.6763  141.3370  169.8543 C.ar    1  UNL1        0.0594
     17 C         140.9510  142.4668  168.9067 C.ar    1  UNL1        0.0144
     18 C         140.5909  142.3338  167.4566 C.ar    1  UNL1       -0.0015
     19 C         139.9562  141.0709  166.9541 C.ar    1  UNL1       -0.0034
     20 C         139.6816  139.9411  167.9018 C.ar    1  UNL1        0.0941
     21 N         140.0417  140.0742  169.3519 N.ar    1  UNL1       -0.2485
     22 C         138.3309  139.6763  155.2057 C.3     1  UNL1        0.2850
     23 N         136.9835  139.1468  154.8128 N.pl3   1  UNL1       -0.2091
     24 H         136.8174  138.1764  154.8110 H       1  UNL1        0.2928
     25 C         135.8894  140.0958  154.4225 C.2     1  UNL1        0.3493
     26 N         135.9649  141.1312  153.3399 N.2     1  UNL1        0.0798
     27 N         134.6498  141.8513  153.2947 N.2     1  UNL1       -0.0381
     28 C         133.7616  141.2609  154.3495 C.2     1  UNL1        0.1169
     29 C         132.3541  141.5711  154.7653 C.3     1  UNL1        0.0759
     30 C         131.7129  140.7963  155.8781 C.2     1  UNL1       -0.0158
     31 C         132.4790  139.7114  156.5751 C.2     1  UNL1        0.0678
     32 C         133.8864  139.4012  156.1593 C.2     1  UNL1        0.0123
     33 C         134.5277  140.1760  155.0465 C.2     1  UNL1        0.1019
     34 C         131.8376  138.9366  157.6880 C.3     1  UNL1        0.4183
     35 F         131.1963  138.1618  158.8008 F       1  UNL1       -0.1659
     36 F         133.0387  138.0406  157.7564 F       1  UNL1       -0.1659
     37 F         130.6366  139.8325  157.6196 F       1  UNL1       -0.1659
@<TRIPOS>BOND
     1    15    16    1
     2    16    17   ar
     3    17    18   ar
     4    18    19   ar
     5     9    19    1
     6     9    10    1
     7    10    11    1
     8    11    12    1
     9    12     5    1
    10     5     6    1
    11     6     7    1
    12     7     1    1
    13     1     2   am
    14     2     3    2
    15     2    22    1
    16    22    23    1
    17    23    25    1
    18    25    26    2
    19    26    27    1
    20    27    28    2
    21    28    29    1
    22    29    30    1
    23    30    31    2
    24    31    34    1
    25    34    35    1
    26    34    36    1
    27    34    37    1
    28    31    32    1
    29    32    33    2
    30     7     8    1
    31    12    13    1
    32    13    14    1
    33    19    20   ar
    34    20    21   ar
    35    21    16   ar
    36    14     9    1
    37     8     5    1
    38    33    25    1
    39    33    28    1
    40     1     4    1
    41    23    24    1
@<TRIPOS>MOLECULE
*****
 37 41 0 0 0
SMALL
GASTEIGER

@<TRIPOS>ATOM
      1 N         143.3873  140.6916  158.0545 N.am    1  UNL1       -0.2999
      2 C         143.9438  140.9739  159.4184 C.2     1  UNL1        0.2701
      3 O         144.2453  139.8414  160.3547 O.2     1  UNL1       -0.2706
      4 H         143.1895  141.4349  157.4400 H       1  UNL1        0.1496
      5 N         142.7714  137.2757  157.0216 N.3     1  UNL1       -0.2711
      6 C         143.4787  138.4543  156.4210 C.3     1  UNL1        0.0933
      7 C         143.1322  139.2767  157.6267 C.3     1  UNL1        0.1035
      8 C         142.4250  138.0982  158.2273 C.3     1  UNL1        0.0933
      9 C         142.0061  133.0310  155.7383 C.3     1  UNL1        0.0240
     10 C         141.2738  134.1591  155.0740 C.3     1  UNL1        0.0058
     11 C         141.5289  135.5739  155.5018 C.3     1  UNL1        0.0163
     12 C         142.5163  135.8608  156.5939 C.3     1  UNL1        0.0576
     13 C         143.2486  134.7328  157.2582 C.3     1  UNL1        0.0163
     14 C         142.9935  133.3179  156.8304 C.3     1  UNL1        0.0058
     15 C         140.9850  127.3717  154.0268 C.3     1  UNL1        0.0521
     16 C         141.2403  128.7866  154.4547 C.ar    1  UNL1        0.0594
     17 C         140.1666  129.8224  154.2993 C.ar    1  UNL1        0.0144
     18 C         140.4219  131.2372  154.7272 C.ar    1  UNL1       -0.0015
     19 C         141.7509  131.6162  155.3105 C.ar    1  UNL1       -0.0034
     20 C         142.8246  130.5803  155.4658 C.ar    1  UNL1        0.0941
     21 N         142.5693  129.1655  155.0380 N.ar    1  UNL1       -0.2485
     22 C         144.1990  142.3888  159.8462 C.3     1  UNL1        0.2850
     23 N         145.0819  142.6679  161.0264 N.pl3   1  UNL1       -0.2091
     24 H         146.0405  142.4469  160.9872 H       1  UNL1        0.2928
     25 C         144.5043  143.2839  162.2661 C.2     1  UNL1        0.3493
     26 N         144.2675  144.7472  162.4955 N.2     1  UNL1        0.0798
     27 N         143.6790  144.9123  163.8653 N.2     1  UNL1       -0.0381
     28 C         143.5520  143.5511  164.4825 C.2     1  UNL1        0.1169
     29 C         143.0378  143.0979  165.8167 C.3     1  UNL1        0.0759
     30 C         143.0337  141.6384  166.1626 C.2     1  UNL1       -0.0158
     31 C         143.5438  140.6320  165.1742 C.2     1  UNL1        0.0678
     32 C         144.0580  141.0851  163.8399 C.2     1  UNL1        0.0123
     33 C         144.0621  142.5446  163.4941 C.2     1  UNL1        0.1019
     34 C         143.5396  139.1723  165.5201 C.3     1  UNL1        0.4183
     35 F         143.5355  137.7128  165.8660 F       1  UNL1       -0.1659
     36 F         144.2164  138.8618  164.2180 F       1  UNL1       -0.1659
     37 F         142.8628  139.4829  166.8222 F       1  UNL1       -0.1659
@<TRIPOS>BOND
     1    15    16    1
     2    16    17   ar
     3    17    18   ar
     4    18    19   ar
     5     9    19    1
     6     9    10    1
     7    10    11    1
     8    11    12    1
     9    12     5    1
    10     5     6    1
    11     6     7    1
    12     7     1    1
    13     1     2   am
    14     2     3    2
    15     2    22    1
    16    22    23    1
    17    23    25    1
    18    25    26    2
    19    26    27    1
    20    27    28    2
    21    28    29    1
    22    29    30    1
    23    30    31    2
    24    31    34    1
    25    34    35    1
    26    34    36    1
    27    34    37    1
    28    31    32    1
    29    32    33    2
    30     7     8    1
    31    12    13    1
    32    13    14    1
    33    19    20   ar
    34    20    21   ar
    35    21    16   ar
    36    14     9    1
    37     8     5    1
    38    33    25    1
    39    33    28    1
    40     1     4    1
    41    23    24    1
@<TRIPOS>MOLECULE
*****
 37 41 0 0 0
SMALL
GASTEIGER

@<TRIPOS>ATOM
      1 N         141.6442  142.9298  165.7371 N.am    1  UNL1       -0.2999
      2 C         142.9347  142.4871  166.3605 C.2     1  UNL1        0.2701
      3 O         144.1857  142.4299  165.5349 O.2     1  UNL1       -0.2706
      4 H         140.8231  142.9673  166.2790 H       1  UNL1        0.1496
      5 N         141.5489  143.8606  162.2387 N.3     1  UNL1       -0.2711
      6 C         141.0847  142.6767  163.0343 C.3     1  UNL1        0.0933
      7 C         141.6048  143.3154  164.2880 C.3     1  UNL1        0.1035
      8 C         142.0690  144.4991  163.4924 C.3     1  UNL1        0.0933
      9 C         141.4307  145.0173  157.8915 C.3     1  UNL1        0.0240
     10 C         140.3901  145.5421  158.8359 C.3     1  UNL1        0.0058
     11 C         140.4295  145.1565  160.2849 C.3     1  UNL1        0.0163
     12 C         141.5095  144.2461  160.7896 C.3     1  UNL1        0.0576
     13 C         142.5501  143.7213  159.8453 C.3     1  UNL1        0.0163
     14 C         142.5107  144.1069  158.3962 C.3     1  UNL1        0.0058
     15 C         141.2729  146.5596  152.0953 C.3     1  UNL1        0.0521
     16 C         141.3123  146.1740  153.5444 C.ar    1  UNL1        0.0594
     17 C         142.3626  145.2245  154.0394 C.ar    1  UNL1        0.0144
     18 C         142.4021  144.8389  155.4885 C.ar    1  UNL1       -0.0015
     19 C         141.3911  145.4029  156.4425 C.ar    1  UNL1       -0.0034
     20 C         140.3408  146.3524  155.9474 C.ar    1  UNL1        0.0941
     21 N         140.3014  146.7380  154.4983 N.ar    1  UNL1       -0.2485
     22 C         142.9741  142.1015  167.8095 C.3     1  UNL1        0.2850
     23 N         142.5915  140.7123  168.2267 N.pl3   1  UNL1       -0.2091
     24 H         143.2875  140.0692  168.4935 H       1  UNL1        0.2928
     25 C         141.1484  140.3031  168.2373 C.2     1  UNL1        0.3493
     26 N         140.1718  140.5439  169.3500 N.2     1  UNL1        0.0798
     27 N         138.8485  139.9708  168.9374 N.2     1  UNL1       -0.0381
     28 C         139.0072  139.3757  167.5696 C.2     1  UNL1        0.1169
     29 C         138.0411  138.6734  166.6623 C.3     1  UNL1        0.0759
     30 C         138.4964  138.1764  165.3223 C.2     1  UNL1       -0.0158
     31 C         139.9179  138.3818  164.8897 C.2     1  UNL1        0.0678
     32 C         140.8840  139.0841  165.7970 C.2     1  UNL1        0.0123
     33 C         140.4287  139.5811  167.1370 C.2     1  UNL1        0.1019
     34 C         140.3732  137.8848  163.5496 C.3     1  UNL1        0.4183
     35 F         140.8285  137.3878  162.2095 F       1  UNL1       -0.1659
     36 F         141.2163  136.8425  164.2225 F       1  UNL1       -0.1659
     37 F         139.5301  138.9270  162.8766 F       1  UNL1       -0.1659
@<TRIPOS>BOND
     1    15    16    1
     2    16    17   ar
     3    17    18   ar
     4    18    19   ar
     5     9    19    1
     6     9    10    1
     7    10    11    1
     8    11    12    1
     9    12     5    1
    10     5     6    1
    11     6     7    1
    12     7     1    1
    13     1     2   am
    14     2     3    2
    15     2    22    1
    16    22    23    1
    17    23    25    1
    18    25    26    2
    19    26    27    1
    20    27    28    2
    21    28    29    1
    22    29    30    1
    23    30    31    2
    24    31    34    1
    25    34    35    1
    26    34    36    1
    27    34    37    1
    28    31    32    1
    29    32    33    2
    30     7     8    1
    31    12    13    1
    32    13    14    1
    33    19    20   ar
    34    20    21   ar
    35    21    16   ar
    36    14     9    1
    37     8     5    1
    38    33    25    1
    39    33    28    1
    40     1     4    1
    41    23    24    1
@<TRIPOS>MOLECULE
*****
 37 41 0 0 0
SMALL
GASTEIGER

@<TRIPOS>ATOM
      1 N         143.0431  137.9204  157.8029 N.am    1  UNL1       -0.2999
      2 C         141.8047  137.6634  156.9965 C.2     1  UNL1        0.2701
      3 O         140.4526  137.8391  157.6217 O.2     1  UNL1       -0.2706
      4 H         143.9305  137.8051  157.3925 H       1  UNL1        0.1496
      5 N         142.7684  138.9645  161.2595 N.3     1  UNL1       -0.2711
      6 C         142.5798  137.6708  160.5242 C.3     1  UNL1        0.0933
      7 C         142.9293  138.3529  159.2346 C.3     1  UNL1        0.1035
      8 C         143.1180  139.6465  159.9701 C.3     1  UNL1        0.0933
      9 C         142.4272  140.2621  165.5549 C.3     1  UNL1        0.0240
     10 C         143.6756  139.5844  165.0730 C.3     1  UNL1        0.0058
     11 C         143.7893  139.1519  163.6413 C.3     1  UNL1        0.0163
     12 C         142.6547  139.3971  162.6913 C.3     1  UNL1        0.0576
     13 C         141.4062  140.0747  163.1731 C.3     1  UNL1        0.0163
     14 C         141.2925  140.5073  164.6049 C.3     1  UNL1        0.0058
     15 C         141.9728  141.9924  171.2819 C.3     1  UNL1        0.0521
     16 C         142.0864  141.5598  169.8502 C.ar    1  UNL1        0.0594
     17 C         142.8220  142.4175  168.8637 C.ar    1  UNL1        0.0144
     18 C         142.9356  141.9849  167.4320 C.ar    1  UNL1       -0.0015
     19 C         142.3135  140.6946  166.9866 C.ar    1  UNL1       -0.0034
     20 C         141.5778  139.8370  167.9731 C.ar    1  UNL1        0.0941
     21 N         141.4643  140.2696  169.4049 N.ar    1  UNL1       -0.2485
     22 C         141.9185  137.2309  155.5647 C.3     1  UNL1        0.2850
     23 N         141.7047  135.7925  155.1965 N.pl3   1  UNL1       -0.2091
     24 H         141.0984  135.5585  154.4570 H       1  UNL1        0.2928
     25 C         142.4149  134.7107  155.9550 C.2     1  UNL1        0.3493
     26 N         143.4740  134.9143  156.9974 N.2     1  UNL1        0.0798
     27 N         143.9042  133.5648  157.4909 N.2     1  UNL1       -0.0381
     28 C         143.1109  132.5270  156.7535 C.2     1  UNL1        0.1169
     29 C         143.1078  131.0287  156.8238 C.3     1  UNL1        0.0759
     30 C         142.1842  130.2386  155.9448 C.2     1  UNL1       -0.0158
     31 C         141.2637  130.9468  154.9955 C.2     1  UNL1        0.0678
     32 C         141.2668  132.4451  154.9253 C.2     1  UNL1        0.0123
     33 C         142.1904  133.2352  155.8042 C.2     1  UNL1        0.1019
     34 C         140.3401  130.1566  154.1165 C.3     1  UNL1        0.4183
     35 F         139.4165  129.3665  153.2375 F       1  UNL1       -0.1659
     36 F         139.2174  130.3942  155.0825 F       1  UNL1       -0.1659
     37 F         141.4627  129.9191  153.1505 F       1  UNL1       -0.1659
@<TRIPOS>BOND
     1    15    16    1
     2    16    17   ar
     3    17    18   ar
     4    18    19   ar
     5     9    19    1
     6     9    10    1
     7    10    11    1
     8    11    12    1
     9    12     5    1
    10     5     6    1
    11     6     7    1
    12     7     1    1
    13     1     2   am
    14     2     3    2
    15     2    22    1
    16    22    23    1
    17    23    25    1
    18    25    26    2
    19    26    27    1
    20    27    28    2
    21    28    29    1
    22    29    30    1
    23    30    31    2
    24    31    34    1
    25    34    35    1
    26    34    36    1
    27    34    37    1
    28    31    32    1
    29    32    33    2
    30     7     8    1
    31    12    13    1
    32    13    14    1
    33    19    20   ar
    34    20    21   ar
    35    21    16   ar
    36    14     9    1
    37     8     5    1
    38    33    25    1
    39    33    28    1
    40     1     4    1
    41    23    24    1
@<TRIPOS>MOLECULE
*****
 37 41 0 0 0
SMALL
GASTEIGER

@<TRIPOS>ATOM
      1 N         143.0802  139.8403  157.7057 N.am    1  UNL1       -0.2999
      2 C         143.7514  140.1612  159.0081 C.2     1  UNL1        0.2701
      3 O         144.2164  139.0528  159.9054 O.2     1  UNL1       -0.2706
      4 H         142.7750  140.5679  157.1168 H       1  UNL1        0.1496
      5 N         142.5824  136.3893  156.7274 N.3     1  UNL1       -0.2711
      6 C         143.3590  137.5472  156.1740 C.3     1  UNL1        0.0933
      7 C         142.8740  138.4109  157.3005 C.3     1  UNL1        0.1035
      8 C         142.0974  137.2530  157.8538 C.3     1  UNL1        0.0933
      9 C         141.9636  132.1010  155.5119 C.3     1  UNL1        0.0240
     10 C         142.8880  132.4334  156.6457 C.3     1  UNL1        0.0058
     11 C         143.0942  133.8628  157.0508 C.3     1  UNL1        0.0163
     12 C         142.3761  134.9599  156.3223 C.3     1  UNL1        0.0576
     13 C         141.4518  134.6275  155.1886 C.3     1  UNL1        0.0163
     14 C         141.2456  133.1981  154.7834 C.3     1  UNL1        0.0058
     15 C         141.1387  126.3831  153.8916 C.3     1  UNL1        0.0521
     16 C         141.3449  127.8126  154.2967 C.ar    1  UNL1        0.0594
     17 C         140.1721  128.7435  154.3860 C.ar    1  UNL1        0.0144
     18 C         140.3784  130.1729  154.7911 C.ar    1  UNL1       -0.0015
     19 C         141.7575  130.6715  155.1069 C.ar    1  UNL1       -0.0034
     20 C         142.9302  129.7406  155.0176 C.ar    1  UNL1        0.0941
     21 N         142.7240  128.3111  154.6125 N.ar    1  UNL1       -0.2485
     22 C         143.9577  141.5907  159.4133 C.3     1  UNL1        0.2850
     23 N         143.5542  142.0474  160.7840 N.pl3   1  UNL1       -0.2091
     24 H         142.8261  142.7015  160.8904 H       1  UNL1        0.2928
     25 C         144.2600  141.5076  161.9924 C.2     1  UNL1        0.3493
     26 N         145.6318  141.8956  162.4589 N.2     1  UNL1        0.0798
     27 N         145.9375  141.1128  163.7014 N.2     1  UNL1       -0.0381
     28 C         144.7547  140.2409  164.0027 C.2     1  UNL1        0.1169
     29 C         144.4878  139.2563  165.1024 C.3     1  UNL1        0.0759
     30 C         143.1841  138.5157  165.1458 C.2     1  UNL1       -0.0158
     31 C         142.1473  138.7597  164.0896 C.2     1  UNL1        0.0678
     32 C         142.4143  139.7443  162.9900 C.2     1  UNL1        0.0123
     33 C         143.7179  140.4849  162.9465 C.2     1  UNL1        0.1019
     34 C         140.8436  138.0191  164.1331 C.3     1  UNL1        0.4183
     35 F         139.5399  137.2786  164.1767 F       1  UNL1       -0.1659
     36 F         141.2853  137.1734  162.9757 F       1  UNL1       -0.1659
     37 F         140.4019  138.8648  165.2905 F       1  UNL1       -0.1659
@<TRIPOS>BOND
     1    15    16    1
     2    16    17   ar
     3    17    18   ar
     4    18    19   ar
     5     9    19    1
     6     9    10    1
     7    10    11    1
     8    11    12    1
     9    12     5    1
    10     5     6    1
    11     6     7    1
    12     7     1    1
    13     1     2   am
    14     2     3    2
    15     2    22    1
    16    22    23    1
    17    23    25    1
    18    25    26    2
    19    26    27    1
    20    27    28    2
    21    28    29    1
    22    29    30    1
    23    30    31    2
    24    31    34    1
    25    34    35    1
    26    34    36    1
    27    34    37    1
    28    31    32    1
    29    32    33    2
    30     7     8    1
    31    12    13    1
    32    13    14    1
    33    19    20   ar
    34    20    21   ar
    35    21    16   ar
    36    14     9    1
    37     8     5    1
    38    33    25    1
    39    33    28    1
    40     1     4    1
    41    23    24    1
@<TRIPOS>MOLECULE
*****
 37 41 0 0 0
SMALL
GASTEIGER

@<TRIPOS>ATOM
      1 N         141.9209  142.5290  165.5153 N.am    1  UNL1       -0.2999
      2 C         140.6881  142.5610  166.3690 C.2     1  UNL1        0.2701
      3 O         139.3902  143.0461  165.7945 O.2     1  UNL1       -0.2706
      4 H         142.7728  142.2107  165.8924 H       1  UNL1        0.1496
      5 N         141.7637  143.6229  162.0666 N.3     1  UNL1       -0.2711
      6 C         141.2431  142.4408  162.8292 C.3     1  UNL1        0.0933
      7 C         141.8559  142.9822  164.0868 C.3     1  UNL1        0.1035
      8 C         142.3765  144.1642  163.3242 C.3     1  UNL1        0.0933
      9 C         141.5685  144.9823  157.7813 C.3     1  UNL1        0.0240
     10 C         140.5832  145.5106  158.7815 C.3     1  UNL1        0.0058
     11 C         140.6483  145.0575  160.2098 C.3     1  UNL1        0.0163
     12 C         141.6987  144.0761  160.6382 C.3     1  UNL1        0.0576
     13 C         142.6839  143.5478  159.6381 C.3     1  UNL1        0.0163
     14 C         142.6188  144.0009  158.2097 C.3     1  UNL1        0.0058
     15 C         141.3074  146.7954  152.0678 C.3     1  UNL1        0.0521
     16 C         141.3727  146.3421  153.4962 C.ar    1  UNL1        0.0594
     17 C         140.3887  146.8717  154.4967 C.ar    1  UNL1        0.0144
     18 C         140.4540  146.4184  155.9251 C.ar    1  UNL1       -0.0015
     19 C         141.5033  145.4355  156.3530 C.ar    1  UNL1       -0.0034
     20 C         142.4873  144.9060  155.3523 C.ar    1  UNL1        0.0941
     21 N         142.4220  145.3592  153.9239 N.ar    1  UNL1       -0.2485
     22 C         140.7532  142.1079  167.7975 C.3     1  UNL1        0.2850
     23 N         140.6423  140.6487  168.1273 N.pl3   1  UNL1       -0.2091
     24 H         141.1811  140.2667  168.8574 H       1  UNL1        0.2928
     25 C         139.7105  139.7716  167.3446 C.2     1  UNL1        0.3493
     26 N         138.3161  139.3890  167.7437 N.2     1  UNL1        0.0798
     27 N         137.7534  138.5041  166.6712 N.2     1  UNL1       -0.0381
     28 C         138.8001  138.3397  165.6093 C.2     1  UNL1        0.1169
     29 C         138.8079  137.5780  164.3172 C.3     1  UNL1        0.0759
     30 C         140.0254  137.5996  163.4413 C.2     1  UNL1       -0.0158
     31 C         141.2350  138.3830  163.8575 C.2     1  UNL1        0.0678
     32 C         141.2271  139.1448  165.1496 C.2     1  UNL1        0.0123
     33 C         140.0096  139.1231  166.0255 C.2     1  UNL1        0.1019
     34 C         142.4525  138.4046  162.9815 C.3     1  UNL1        0.4183
     35 F         143.6699  138.4262  162.1055 F       1  UNL1       -0.1659
     36 F         143.0332  139.5076  163.8158 F       1  UNL1       -0.1659
     37 F         141.8717  137.3016  162.1472 F       1  UNL1       -0.1659
@<TRIPOS>BOND
     1    15    16    1
     2    16    17   ar
     3    17    18   ar
     4    18    19   ar
     5     9    19    1
     6     9    10    1
     7    10    11    1
     8    11    12    1
     9    12     5    1
    10     5     6    1
    11     6     7    1
    12     7     1    1
    13     1     2   am
    14     2     3    2
    15     2    22    1
    16    22    23    1
    17    23    25    1
    18    25    26    2
    19    26    27    1
    20    27    28    2
    21    28    29    1
    22    29    30    1
    23    30    31    2
    24    31    34    1
    25    34    35    1
    26    34    36    1
    27    34    37    1
    28    31    32    1
    29    32    33    2
    30     7     8    1
    31    12    13    1
    32    13    14    1
    33    19    20   ar
    34    20    21   ar
    35    21    16   ar
    36    14     9    1
    37     8     5    1
    38    33    25    1
    39    33    28    1
    40     1     4    1
    41    23    24    1
