@<TRIPOS>MOLECULE
*****
 31 34 0 0 0
SMALL
GASTEIGER

@<TRIPOS>ATOM
      1 C         139.1935  143.5822  162.0266 C.ar    1  UNL1        0.0755
      2 C         137.8339  142.9572  161.9222 C.ar    1  UNL1        0.1035
      3 N         137.2741  142.1821  163.0779 N.ar    1  UNL1       -0.2406
      4 C         138.0737  142.0321  164.3381 C.ar    1  UNL1        0.1180
      5 C         139.4332  142.6572  164.4425 C.ar    1  UNL1        0.1036
      6 C         139.9931  143.4322  163.2868 C.ar    1  UNL1        0.0460
      7 C         141.3518  143.9326  163.6789 C.ar    1  UNL1        0.1222
      8 N         141.6315  143.4668  165.0770 N.ar    1  UNL1       -0.1635
      9 N         140.4458  142.6785  165.5490 N.ar    1  UNL1       -0.2281
     10 C         140.2985  142.0261  166.8916 C.ar    1  UNL1        0.0830
     11 C         140.4479  142.8411  168.1419 C.ar    1  UNL1        0.0215
     12 C         140.3006  142.1887  169.4846 C.ar    1  UNL1        0.0312
     13 C         140.0039  140.7212  169.5769 C.ar    1  UNL1        0.1402
     14 F         139.8566  140.0689  170.9195 F       1  UNL1       -0.2042
     15 C         139.8545  139.9063  168.3265 C.ar    1  UNL1        0.0312
     16 C         140.0018  140.5587  166.9839 C.ar    1  UNL1        0.0215
     17 N         140.4600  143.6402  159.7589 N.am    1  UNL1       -0.2969
     18 C         139.7534  144.3573  160.8708 C.2     1  UNL1        0.2477
     19 O         139.6068  145.8495  160.8271 O.2     1  UNL1       -0.2701
     20 H         140.5562  142.6609  159.7876 H       1  UNL1        0.1501
     21 C         141.0199  144.4153  158.6031 C.3     1  UNL1        0.1167
     22 C         139.1213  146.7639  156.0284 C.ar    1  UNL1        0.1860
     23 C         140.0243  146.3172  157.1397 C.ar    1  UNL1        0.0353
     24 C         140.1170  144.8620  157.4918 C.ar    1  UNL1        0.0018
     25 C         139.3067  143.8536  156.7325 C.ar    1  UNL1        0.0182
     26 C         138.4037  144.3003  155.6212 C.ar    1  UNL1        0.1001
     27 N         138.3110  145.7554  155.2691 N.ar    1  UNL1       -0.2257
     28 C         138.9359  149.6741  155.3242 C.3     1  UNL1        0.1834
     29 S         139.0286  148.2190  155.6763 S.O2    1  UNL1        0.0268
     30 O         139.5124  147.9143  154.2896 O.2     1  UNL1       -0.1671
     31 O         138.5448  148.5237  157.0630 O.2     1  UNL1       -0.1671
@<TRIPOS>BOND
     1    28    29    1
     2    29    30    2
     3    29    31    2
     4    29    22    1
     5    22    23   ar
     6    23    24   ar
     7    24    21    1
     8    21    17    1
     9    17    18   am
    10    18    19    2
    11    18     1    1
    12     1     2   ar
    13     2     3   ar
    14     3     4   ar
    15     4     5   ar
    16     5     6   ar
    17     6     7   ar
    18     7     8   ar
    19     8     9   ar
    20     9    10    1
    21    10    11   ar
    22    11    12   ar
    23    12    13   ar
    24    13    14    1
    25    13    15   ar
    26    15    16   ar
    27    24    25   ar
    28    25    26   ar
    29    26    27   ar
    30    27    22   ar
    31     6     1   ar
    32    16    10   ar
    33     9     5   ar
    34    17    20    1
@<TRIPOS>MOLECULE
*****
 31 34 0 0 0
SMALL
GASTEIGER

@<TRIPOS>ATOM
      1 C         142.5261  138.4184  160.4768 C.ar    1  UNL1        0.0755
      2 C         143.8757  138.6616  161.0844 C.ar    1  UNL1        0.1035
      3 N         143.9936  138.9868  162.5439 N.ar    1  UNL1       -0.2406
      4 C         142.7617  139.0688  163.3959 C.ar    1  UNL1        0.1180
      5 C         141.4121  138.8255  162.7884 C.ar    1  UNL1        0.1036
      6 C         141.2942  138.5003  161.3288 C.ar    1  UNL1        0.0460
      7 C         139.8403  138.3112  161.0119 C.ar    1  UNL1        0.1222
      8 N         139.0596  138.5195  162.2757 N.ar    1  UNL1       -0.1635
      9 N         140.0310  138.8374  163.3736 N.ar    1  UNL1       -0.2281
     10 C         139.6825  139.1179  164.8053 C.ar    1  UNL1        0.0830
     11 C         138.5082  138.4333  165.4394 C.ar    1  UNL1        0.0215
     12 C         138.1597  138.7138  166.8711 C.ar    1  UNL1        0.0312
     13 C         138.9857  139.6789  167.6688 C.ar    1  UNL1        0.1402
     14 F         138.6372  139.9594  169.1006 F       1  UNL1       -0.2042
     15 C         140.1601  140.3635  167.0348 C.ar    1  UNL1        0.0312
     16 C         140.5085  140.0830  165.6030 C.ar    1  UNL1        0.0215
     17 N         143.0386  136.8454  158.4735 N.am    1  UNL1       -0.2969
     18 C         142.4082  138.0932  159.0172 C.2     1  UNL1        0.2477
     19 O         141.6598  139.0157  158.1013 O.2     1  UNL1       -0.2701
     20 H         143.5298  136.2399  159.0747 H       1  UNL1        0.1501
     21 C         142.9208  136.5202  157.0140 C.3     1  UNL1        0.1167
     22 C         143.1488  132.5659  156.7651 C.ar    1  UNL1        0.1860
     23 C         143.4157  133.9764  157.2000 C.ar    1  UNL1        0.0353
     24 C         142.6538  135.1096  156.5791 C.ar    1  UNL1        0.0018
     25 C         141.6251  134.8323  155.5233 C.ar    1  UNL1        0.0182
     26 C         141.3582  133.4218  155.0883 C.ar    1  UNL1        0.1001
     27 N         142.1200  132.2886  155.7092 N.ar    1  UNL1       -0.2257
     28 C         144.6723  130.2995  158.0069 C.3     1  UNL1        0.1834
     29 S         143.9105  131.4327  157.3860 S.O2    1  UNL1        0.0268
     30 O         144.8659  132.4120  158.0010 O.2     1  UNL1       -0.1671
     31 O         142.9551  130.4535  156.7710 O.2     1  UNL1       -0.1671
@<TRIPOS>BOND
     1    28    29    1
     2    29    30    2
     3    29    31    2
     4    29    22    1
     5    22    23   ar
     6    23    24   ar
     7    24    21    1
     8    21    17    1
     9    17    18   am
    10    18    19    2
    11    18     1    1
    12     1     2   ar
    13     2     3   ar
    14     3     4   ar
    15     4     5   ar
    16     5     6   ar
    17     6     7   ar
    18     7     8   ar
    19     8     9   ar
    20     9    10    1
    21    10    11   ar
    22    11    12   ar
    23    12    13   ar
    24    13    14    1
    25    13    15   ar
    26    15    16   ar
    27    24    25   ar
    28    25    26   ar
    29    26    27   ar
    30    27    22   ar
    31     6     1   ar
    32    16    10   ar
    33     9     5   ar
    34    17    20    1
@<TRIPOS>MOLECULE
*****
 31 34 0 0 0
SMALL
GASTEIGER

@<TRIPOS>ATOM
      1 C         141.0184  138.6090  159.3961 C.ar    1  UNL1        0.0755
      2 C         139.6838  139.1321  158.9544 C.ar    1  UNL1        0.1035
      3 N         138.6443  139.4916  159.9742 N.ar    1  UNL1       -0.2406
      4 C         138.9393  139.3281  161.4358 C.ar    1  UNL1        0.1180
      5 C         140.2739  138.8050  161.8775 C.ar    1  UNL1        0.1036
      6 C         141.3134  138.4455  160.8577 C.ar    1  UNL1        0.0460
      7 C         142.5296  137.9573  161.5876 C.ar    1  UNL1        0.1222
      8 N         142.2416  138.0152  163.0586 N.ar    1  UNL1       -0.1635
      9 N         140.8476  138.5391  163.2377 N.ar    1  UNL1       -0.2281
     10 C         140.1497  138.7586  164.5472 C.ar    1  UNL1        0.0830
     11 C         140.7140  139.7260  165.5450 C.ar    1  UNL1        0.0215
     12 C         140.0161  139.9455  166.8545 C.ar    1  UNL1        0.0312
     13 C         138.7537  139.1976  167.1662 C.ar    1  UNL1        0.1402
     14 F         138.0558  139.4171  168.4756 F       1  UNL1       -0.2042
     15 C         138.1894  138.2302  166.1684 C.ar    1  UNL1        0.0312
     16 C         138.8873  138.0107  164.8589 C.ar    1  UNL1        0.0215
     17 N         141.6698  137.4790  157.1492 N.am    1  UNL1       -0.2969
     18 C         142.0580  138.2493  158.3763 C.2     1  UNL1        0.2477
     19 O         143.4856  138.6601  158.5836 O.2     1  UNL1       -0.2701
     20 H         140.7328  137.2094  157.0131 H       1  UNL1        0.1501
     21 C         142.7093  137.1194  156.1293 C.3     1  UNL1        0.1167
     22 C         143.8133  133.3078  156.1893 C.ar    1  UNL1        0.1860
     23 C         143.6330  134.7379  156.6044 C.ar    1  UNL1        0.0353
     24 C         142.8896  135.6892  155.7143 C.ar    1  UNL1        0.0018
     25 C         142.3264  135.2105  154.4091 C.ar    1  UNL1        0.0182
     26 C         142.5067  133.7803  153.9940 C.ar    1  UNL1        0.1001
     27 N         143.2501  132.8290  154.8841 N.ar    1  UNL1       -0.2257
     28 C         145.3001  131.4052  157.9695 C.3     1  UNL1        0.1834
     29 S         144.5567  132.3565  157.0794 S.O2    1  UNL1        0.0268
     30 O         144.6634  131.3796  155.9462 O.2     1  UNL1       -0.1671
     31 O         144.4499  133.3334  158.2127 O.2     1  UNL1       -0.1671
@<TRIPOS>BOND
     1    28    29    1
     2    29    30    2
     3    29    31    2
     4    29    22    1
     5    22    23   ar
     6    23    24   ar
     7    24    21    1
     8    21    17    1
     9    17    18   am
    10    18    19    2
    11    18     1    1
    12     1     2   ar
    13     2     3   ar
    14     3     4   ar
    15     4     5   ar
    16     5     6   ar
    17     6     7   ar
    18     7     8   ar
    19     8     9   ar
    20     9    10    1
    21    10    11   ar
    22    11    12   ar
    23    12    13   ar
    24    13    14    1
    25    13    15   ar
    26    15    16   ar
    27    24    25   ar
    28    25    26   ar
    29    26    27   ar
    30    27    22   ar
    31     6     1   ar
    32    16    10   ar
    33     9     5   ar
    34    17    20    1
@<TRIPOS>MOLECULE
*****
 31 34 0 0 0
SMALL
GASTEIGER

@<TRIPOS>ATOM
      1 C         139.2294  143.5219  161.8965 C.ar    1  UNL1        0.0755
      2 C         137.8683  142.9065  161.7599 C.ar    1  UNL1        0.1035
      3 N         137.2759  142.1353  162.9020 N.ar    1  UNL1       -0.2406
      4 C         138.0446  141.9796  164.1806 C.ar    1  UNL1        0.1180
      5 C         139.4056  142.5950  164.3172 C.ar    1  UNL1        0.1036
      6 C         139.9980  143.3662  163.1752 C.ar    1  UNL1        0.0460
      7 C         141.3506  143.8570  163.5993 C.ar    1  UNL1        0.1222
      8 N         141.5940  143.3891  165.0035 N.ar    1  UNL1       -0.1635
      9 N         140.3920  142.6092  165.4472 N.ar    1  UNL1       -0.2281
     10 C         140.2085  141.9577  166.7858 C.ar    1  UNL1        0.0830
     11 C         140.5243  142.7181  168.0396 C.ar    1  UNL1        0.0215
     12 C         140.3408  142.0667  169.3782 C.ar    1  UNL1        0.0312
     13 C         139.8416  140.6548  169.4631 C.ar    1  UNL1        0.1402
     14 F         139.6581  140.0033  170.8017 F       1  UNL1       -0.2042
     15 C         139.5258  139.8944  168.2093 C.ar    1  UNL1        0.0312
     16 C         139.7093  140.5458  166.8707 C.ar    1  UNL1        0.0215
     17 N         140.4470  143.5647  159.6018 N.am    1  UNL1       -0.2969
     18 C         139.8218  144.2932  160.7545 C.2     1  UNL1        0.2477
     19 O         139.7892  145.7927  160.7651 O.2     1  UNL1       -0.2701
     20 H         140.4684  142.5805  159.5948 H       1  UNL1        0.1501
     21 C         141.0394  144.3359  158.4598 C.3     1  UNL1        0.1167
     22 C         138.4121  144.5484  155.4929 C.ar    1  UNL1        0.1860
     23 C         139.3034  143.9838  156.5591 C.ar    1  UNL1        0.0353
     24 C         140.1481  144.9005  157.3935 C.ar    1  UNL1        0.0018
     25 C         140.1015  146.3817  157.1617 C.ar    1  UNL1        0.0182
     26 C         139.2102  146.9463  156.0955 C.ar    1  UNL1        0.1001
     27 N         138.3655  146.0297  155.2611 N.ar    1  UNL1       -0.2257
     28 C         136.7227  142.7151  153.8241 C.3     1  UNL1        0.1834
     29 S         137.5674  143.6317  154.6585 S.O2    1  UNL1        0.0268
     30 O         136.4222  143.8224  155.6083 O.2     1  UNL1       -0.1671
     31 O         138.7126  143.4410  153.7087 O.2     1  UNL1       -0.1671
@<TRIPOS>BOND
     1    28    29    1
     2    29    30    2
     3    29    31    2
     4    29    22    1
     5    22    23   ar
     6    23    24   ar
     7    24    21    1
     8    21    17    1
     9    17    18   am
    10    18    19    2
    11    18     1    1
    12     1     2   ar
    13     2     3   ar
    14     3     4   ar
    15     4     5   ar
    16     5     6   ar
    17     6     7   ar
    18     7     8   ar
    19     8     9   ar
    20     9    10    1
    21    10    11   ar
    22    11    12   ar
    23    12    13   ar
    24    13    14    1
    25    13    15   ar
    26    15    16   ar
    27    24    25   ar
    28    25    26   ar
    29    26    27   ar
    30    27    22   ar
    31     6     1   ar
    32    16    10   ar
    33     9     5   ar
    34    17    20    1
@<TRIPOS>MOLECULE
*****
 31 34 0 0 0
SMALL
GASTEIGER

@<TRIPOS>ATOM
      1 C         142.3793  138.3443  162.2889 C.ar    1  UNL1        0.0755
      2 C         141.3037  137.3659  162.6574 C.ar    1  UNL1        0.1035
      3 N         140.7673  137.3333  164.0577 N.ar    1  UNL1       -0.2406
      4 C         141.3064  138.2791  165.0896 C.ar    1  UNL1        0.1180
      5 C         142.3820  139.2575  164.7211 C.ar    1  UNL1        0.1036
      6 C         142.9184  139.2901  163.3207 C.ar    1  UNL1        0.0460
      7 C         143.9709  140.3568  163.2522 C.ar    1  UNL1        0.1222
      8 N         144.0848  140.9834  164.6102 N.ar    1  UNL1       -0.1635
      9 N         143.1028  140.3040  165.5181 N.ar    1  UNL1       -0.2281
     10 C         142.8807  140.6163  166.9683 C.ar    1  UNL1        0.0830
     11 C         142.8735  142.0414  167.4361 C.ar    1  UNL1        0.0215
     12 C         142.6514  142.3537  168.8863 C.ar    1  UNL1        0.0312
     13 C         142.4364  141.2408  169.8688 C.ar    1  UNL1        0.1402
     14 F         142.2143  141.5531  171.3190 F       1  UNL1       -0.2042
     15 C         142.4436  139.8157  169.4010 C.ar    1  UNL1        0.0312
     16 C         142.6658  139.5034  167.9508 C.ar    1  UNL1        0.0215
     17 N         141.9721  138.3469  159.7229 N.am    1  UNL1       -0.2969
     18 C         142.9158  138.3769  160.8884 C.2     1  UNL1        0.2477
     19 O         144.3959  138.4396  160.6536 O.2     1  UNL1       -0.2701
     20 H         141.0006  138.3057  159.8770 H       1  UNL1        0.1501
     21 C         142.5085  138.3795  158.3225 C.3     1  UNL1        0.1167
     22 C         142.6112  134.9878  156.2643 C.ar    1  UNL1        0.1860
     23 C         142.9844  136.0680  157.2357 C.ar    1  UNL1        0.0353
     24 C         142.1353  137.2992  157.3510 C.ar    1  UNL1        0.0018
     25 C         140.9129  137.4501  156.4948 C.ar    1  UNL1        0.0182
     26 C         140.5397  136.3698  155.5233 C.ar    1  UNL1        0.1001
     27 N         141.3888  135.1387  155.4080 N.ar    1  UNL1       -0.2257
     28 C         144.3094  132.5256  156.0337 C.3     1  UNL1        0.1834
     29 S         143.4603  133.7567  156.1490 S.O2    1  UNL1        0.0268
     30 O         143.0025  133.5736  154.7324 O.2     1  UNL1       -0.1671
     31 O         143.9181  133.9398  157.5656 O.2     1  UNL1       -0.1671
@<TRIPOS>BOND
     1    28    29    1
     2    29    30    2
     3    29    31    2
     4    29    22    1
     5    22    23   ar
     6    23    24   ar
     7    24    21    1
     8    21    17    1
     9    17    18   am
    10    18    19    2
    11    18     1    1
    12     1     2   ar
    13     2     3   ar
    14     3     4   ar
    15     4     5   ar
    16     5     6   ar
    17     6     7   ar
    18     7     8   ar
    19     8     9   ar
    20     9    10    1
    21    10    11   ar
    22    11    12   ar
    23    12    13   ar
    24    13    14    1
    25    13    15   ar
    26    15    16   ar
    27    24    25   ar
    28    25    26   ar
    29    26    27   ar
    30    27    22   ar
    31     6     1   ar
    32    16    10   ar
    33     9     5   ar
    34    17    20    1
@<TRIPOS>MOLECULE
*****
 31 34 0 0 0
SMALL
GASTEIGER

@<TRIPOS>ATOM
      1 C         140.3794  139.3645  162.7068 C.ar    1  UNL1        0.0755
      2 C         138.9023  139.5316  162.5065 C.ar    1  UNL1        0.1035
      3 N         138.0581  140.1138  163.6012 N.ar    1  UNL1       -0.2406
      4 C         138.6911  140.5289  164.8963 C.ar    1  UNL1        0.1180
      5 C         140.1682  140.3618  165.0966 C.ar    1  UNL1        0.1036
      6 C         141.0124  139.7796  164.0019 C.ar    1  UNL1        0.0460
      7 C         142.4319  139.7359  164.4846 C.ar    1  UNL1        0.1222
      8 N         142.4651  140.2910  165.8777 N.ar    1  UNL1       -0.1635
      9 N         141.0660  140.6778  166.2559 N.ar    1  UNL1       -0.2281
     10 C         140.6396  141.2758  167.5638 C.ar    1  UNL1        0.0830
     11 C         139.9096  140.4362  168.5698 C.ar    1  UNL1        0.0215
     12 C         139.4832  141.0341  169.8777 C.ar    1  UNL1        0.0312
     13 C         139.7868  142.4717  170.1797 C.ar    1  UNL1        0.1402
     14 F         139.3603  143.0696  171.4876 F       1  UNL1       -0.2042
     15 C         140.5167  143.3113  169.1736 C.ar    1  UNL1        0.0312
     16 C         140.9432  142.7134  167.8657 C.ar    1  UNL1        0.0215
     17 N         141.6070  139.6251  160.4319 N.am    1  UNL1       -0.2969
     18 C         141.2236  138.7823  161.6121 C.2     1  UNL1        0.2477
     19 O         141.6845  137.3575  161.6976 O.2     1  UNL1       -0.2701
     20 H         141.3046  140.5603  160.3759 H       1  UNL1        0.1501
     21 C         142.4512  139.0429  159.3372 C.3     1  UNL1        0.1167
     22 C         141.9328  136.2971  156.5191 C.ar    1  UNL1        0.1860
     23 C         142.5711  137.1076  157.6081 C.ar    1  UNL1        0.0353
     24 C         141.8129  138.2325  158.2483 C.ar    1  UNL1        0.0018
     25 C         140.4166  138.5469  157.7997 C.ar    1  UNL1        0.0182
     26 C         139.7783  137.7364  156.7107 C.ar    1  UNL1        0.1001
     27 N         140.5364  136.6115  156.0705 N.ar    1  UNL1       -0.2257
     28 C         143.4489  134.0474  155.2386 C.3     1  UNL1        0.1834
     29 S         142.6909  135.1722  155.8789 S.O2    1  UNL1        0.0268
     30 O         143.9837  135.7953  156.3149 O.2     1  UNL1       -0.1671
     31 O         141.3980  134.5491  155.4429 O.2     1  UNL1       -0.1671
@<TRIPOS>BOND
     1    28    29    1
     2    29    30    2
     3    29    31    2
     4    29    22    1
     5    22    23   ar
     6    23    24   ar
     7    24    21    1
     8    21    17    1
     9    17    18   am
    10    18    19    2
    11    18     1    1
    12     1     2   ar
    13     2     3   ar
    14     3     4   ar
    15     4     5   ar
    16     5     6   ar
    17     6     7   ar
    18     7     8   ar
    19     8     9   ar
    20     9    10    1
    21    10    11   ar
    22    11    12   ar
    23    12    13   ar
    24    13    14    1
    25    13    15   ar
    26    15    16   ar
    27    24    25   ar
    28    25    26   ar
    29    26    27   ar
    30    27    22   ar
    31     6     1   ar
    32    16    10   ar
    33     9     5   ar
    34    17    20    1
@<TRIPOS>MOLECULE
*****
 31 34 0 0 0
SMALL
GASTEIGER

@<TRIPOS>ATOM
      1 C         143.9429  140.1603  162.3414 C.ar    1  UNL1        0.0755
      2 C         144.8593  141.2839  162.7257 C.ar    1  UNL1        0.1035
      3 N         144.8313  141.8302  164.1224 N.ar    1  UNL1       -0.2406
      4 C         143.8869  141.2529  165.1348 C.ar    1  UNL1        0.1180
      5 C         142.9705  140.1293  164.7504 C.ar    1  UNL1        0.1036
      6 C         142.9986  139.5830  163.3538 C.ar    1  UNL1        0.0460
      7 C         141.9854  138.4801  163.2670 C.ar    1  UNL1        0.1222
      8 N         141.3313  138.3449  164.6100 N.ar    1  UNL1       -0.1635
      9 N         141.9402  139.3641  165.5268 N.ar    1  UNL1       -0.2281
     10 C         141.5815  139.5802  166.9672 C.ar    1  UNL1        0.0830
     11 C         142.5992  139.3271  168.0397 C.ar    1  UNL1        0.0215
     12 C         142.2406  139.5432  169.4800 C.ar    1  UNL1        0.0312
     13 C         140.8643  140.0125  169.8480 C.ar    1  UNL1        0.1402
     14 F         140.5057  140.2286  171.2884 F       1  UNL1       -0.2042
     15 C         139.8466  140.2656  168.7756 C.ar    1  UNL1        0.0312
     16 C         140.2052  140.0495  167.3352 C.ar    1  UNL1        0.0215
     17 N         143.6053  140.4952  159.7872 N.am    1  UNL1       -0.2969
     18 C         143.9709  139.6139  160.9447 C.2     1  UNL1        0.2477
     19 O         144.3645  138.1864  160.7055 O.2     1  UNL1       -0.2701
     20 H         143.3470  141.4321  159.9442 H       1  UNL1        0.1501
     21 C         143.6333  139.9489  158.3905 C.3     1  UNL1        0.1167
     22 C         141.6621  136.9281  156.7354 C.ar    1  UNL1        0.1860
     23 C         142.7918  137.7824  157.2294 C.ar    1  UNL1        0.0353
     24 C         142.5036  139.0946  157.8965 C.ar    1  UNL1        0.0018
     25 C         141.0858  139.5525  158.0697 C.ar    1  UNL1        0.0182
     26 C         139.9561  138.6983  157.5757 C.ar    1  UNL1        0.1001
     27 N         140.2442  137.3861  156.9086 N.ar    1  UNL1       -0.2257
     28 C         142.2384  134.3037  155.4012 C.3     1  UNL1        0.1834
     29 S         141.9502  135.6159  156.0683 S.O2    1  UNL1        0.0268
     30 O         143.0707  135.3705  157.0349 O.2     1  UNL1       -0.1671
     31 O         140.8297  135.8612  155.1018 O.2     1  UNL1       -0.1671
@<TRIPOS>BOND
     1    28    29    1
     2    29    30    2
     3    29    31    2
     4    29    22    1
     5    22    23   ar
     6    23    24   ar
     7    24    21    1
     8    21    17    1
     9    17    18   am
    10    18    19    2
    11    18     1    1
    12     1     2   ar
    13     2     3   ar
    14     3     4   ar
    15     4     5   ar
    16     5     6   ar
    17     6     7   ar
    18     7     8   ar
    19     8     9   ar
    20     9    10    1
    21    10    11   ar
    22    11    12   ar
    23    12    13   ar
    24    13    14    1
    25    13    15   ar
    26    15    16   ar
    27    24    25   ar
    28    25    26   ar
    29    26    27   ar
    30    27    22   ar
    31     6     1   ar
    32    16    10   ar
    33     9     5   ar
    34    17    20    1
@<TRIPOS>MOLECULE
*****
 31 34 0 0 0
SMALL
GASTEIGER

@<TRIPOS>ATOM
      1 C         139.0517  140.4990  159.6952 C.ar    1  UNL1        0.0755
      2 C         138.7335  141.9606  159.8068 C.ar    1  UNL1        0.1035
      3 N         138.6008  142.5981  161.1581 N.ar    1  UNL1       -0.2406
      4 C         138.7863  141.7741  162.3977 C.ar    1  UNL1        0.1180
      5 C         139.1045  140.3125  162.2860 C.ar    1  UNL1        0.1036
      6 C         139.2372  139.6749  160.9348 C.ar    1  UNL1        0.0460
      7 C         139.5547  138.2228  161.1366 C.ar    1  UNL1        0.1222
      8 N         139.6183  137.9630  162.6125 N.ar    1  UNL1       -0.1635
      9 N         139.3400  139.2545  163.3229 N.ar    1  UNL1       -0.2281
     10 C         139.3036  139.4531  164.8092 C.ar    1  UNL1        0.0830
     11 C         138.2342  138.7932  165.6282 C.ar    1  UNL1        0.0215
     12 C         138.1978  138.9918  167.1145 C.ar    1  UNL1        0.0312
     13 C         139.2309  139.8504  167.7820 C.ar    1  UNL1        0.1402
     14 F         139.1946  140.0490  169.2683 F       1  UNL1       -0.2042
     15 C         140.3004  140.5103  166.9630 C.ar    1  UNL1        0.0312
     16 C         140.3368  140.3117  165.4767 C.ar    1  UNL1        0.0215
     17 N         140.5124  139.3296  157.8928 N.am    1  UNL1       -0.2969
     18 C         139.1844  139.8613  158.3439 C.2     1  UNL1        0.2477
     19 O         137.9891  139.7555  157.4439 O.2     1  UNL1       -0.2701
     20 H         141.2969  139.3990  158.4835 H       1  UNL1        0.1501
     21 C         140.6452  138.6919  156.5416 C.3     1  UNL1        0.1167
     22 C         142.9061  135.4538  156.1508 C.ar    1  UNL1        0.1860
     23 C         141.7283  136.3320  156.4532 C.ar    1  UNL1        0.0353
     24 C         141.8230  137.8137  156.2391 C.ar    1  UNL1        0.0018
     25 C         143.0954  138.4171  155.7226 C.ar    1  UNL1        0.0182
     26 C         144.2732  137.5388  155.4201 C.ar    1  UNL1        0.1001
     27 N         144.1786  136.0572  155.6342 N.ar    1  UNL1       -0.2257
     28 C         142.7169  132.4906  156.5790 C.3     1  UNL1        0.1834
     29 S         142.8115  133.9722  156.3649 S.O2    1  UNL1        0.0268
     30 O         141.5421  133.9379  155.5665 O.2     1  UNL1       -0.1671
     31 O         144.0809  134.0065  157.1632 O.2     1  UNL1       -0.1671
@<TRIPOS>BOND
     1    28    29    1
     2    29    30    2
     3    29    31    2
     4    29    22    1
     5    22    23   ar
     6    23    24   ar
     7    24    21    1
     8    21    17    1
     9    17    18   am
    10    18    19    2
    11    18     1    1
    12     1     2   ar
    13     2     3   ar
    14     3     4   ar
    15     4     5   ar
    16     5     6   ar
    17     6     7   ar
    18     7     8   ar
    19     8     9   ar
    20     9    10    1
    21    10    11   ar
    22    11    12   ar
    23    12    13   ar
    24    13    14    1
    25    13    15   ar
    26    15    16   ar
    27    24    25   ar
    28    25    26   ar
    29    26    27   ar
    30    27    22   ar
    31     6     1   ar
    32    16    10   ar
    33     9     5   ar
    34    17    20    1
@<TRIPOS>MOLECULE
*****
 31 34 0 0 0
SMALL
GASTEIGER

@<TRIPOS>ATOM
      1 C         138.4063  141.9745  162.2210 C.ar    1  UNL1        0.0755
      2 C         137.7854  143.3269  162.4095 C.ar    1  UNL1        0.1035
      3 N         137.7842  143.9692  163.7650 N.ar    1  UNL1       -0.2406
      4 C         138.4038  143.2591  164.9320 C.ar    1  UNL1        0.1180
      5 C         139.0246  141.9068  164.7435 C.ar    1  UNL1        0.1036
      6 C         139.0259  141.2645  163.3880 C.ar    1  UNL1        0.0460
      7 C         139.7074  139.9334  163.5064 C.ar    1  UNL1        0.1222
      8 N         140.1273  139.7531  164.9350 N.ar    1  UNL1       -0.1635
      9 N         139.7053  140.9727  165.6996 N.ar    1  UNL1       -0.2281
     10 C         139.9255  141.2157  167.1634 C.ar    1  UNL1        0.0830
     11 C         140.5604  142.4940  167.6243 C.ar    1  UNL1        0.0215
     12 C         140.7805  142.7370  169.0881 C.ar    1  UNL1        0.0312
     13 C         140.3657  141.7015  170.0909 C.ar    1  UNL1        0.1402
     14 F         140.5858  141.9444  171.5546 F       1  UNL1       -0.2042
     15 C         139.7307  140.4231  169.6299 C.ar    1  UNL1        0.0312
     16 C         139.5106  140.1802  168.1662 C.ar    1  UNL1        0.0215
     17 N         139.2898  141.8735  159.7799 N.am    1  UNL1       -0.2969
     18 C         138.4075  141.3322  160.8655 C.2     1  UNL1        0.2477
     19 O         137.5265  140.1486  160.5956 O.2     1  UNL1       -0.2701
     20 H         139.8681  142.6503  159.9570 H       1  UNL1        0.1501
     21 C         139.2911  141.2311  158.4244 C.3     1  UNL1        0.1167
     22 C         136.1160  141.4936  156.0580 C.ar    1  UNL1        0.1860
     23 C         137.0553  141.0049  157.1205 C.ar    1  UNL1        0.0353
     24 C         138.3518  141.7198  157.3619 C.ar    1  UNL1        0.0018
     25 C         138.7087  142.9234  156.5410 C.ar    1  UNL1        0.0182
     26 C         137.7694  143.4121  155.4786 C.ar    1  UNL1        0.1001
     27 N         136.4730  142.6972  155.2371 N.ar    1  UNL1       -0.2257
     28 C         133.5233  140.0638  155.5750 C.3     1  UNL1        0.1834
     29 S         134.8196  140.7787  155.8165 S.O2    1  UNL1        0.0268
     30 O         134.6277  141.5553  154.5477 O.2     1  UNL1       -0.1671
     31 O         135.0115  140.0021  157.0853 O.2     1  UNL1       -0.1671
@<TRIPOS>BOND
     1    28    29    1
     2    29    30    2
     3    29    31    2
     4    29    22    1
     5    22    23   ar
     6    23    24   ar
     7    24    21    1
     8    21    17    1
     9    17    18   am
    10    18    19    2
    11    18     1    1
    12     1     2   ar
    13     2     3   ar
    14     3     4   ar
    15     4     5   ar
    16     5     6   ar
    17     6     7   ar
    18     7     8   ar
    19     8     9   ar
    20     9    10    1
    21    10    11   ar
    22    11    12   ar
    23    12    13   ar
    24    13    14    1
    25    13    15   ar
    26    15    16   ar
    27    24    25   ar
    28    25    26   ar
    29    26    27   ar
    30    27    22   ar
    31     6     1   ar
    32    16    10   ar
    33     9     5   ar
    34    17    20    1
