@<TRIPOS>MOLECULE
*****
 29 32 0 0 0
SMALL
GASTEIGER

@<TRIPOS>ATOM
      1 N         140.4587  140.3030  166.3380 N.ar    1  UNL1       -0.2155
      2 N         141.6346  141.0806  165.8258 N.ar    1  UNL1       -0.1693
      3 C         142.4753  141.8815  166.7755 C.ar    1  UNL1        0.1007
      4 C         142.1399  141.9048  168.2374 C.ar    1  UNL1        0.1014
      5 N         142.9806  142.7057  169.1870 N.ar    1  UNL1       -0.2424
      6 C         142.6452  142.7290  170.6488 C.ar    1  UNL1        0.0989
      7 C         141.4692  141.9513  171.1610 C.ar    1  UNL1        0.0208
      8 C         140.6286  141.1504  170.2114 C.ar    1  UNL1        0.0079
      9 C         140.9639  141.1272  168.7496 C.ar    1  UNL1        0.0764
     10 C         140.1233  140.3262  167.7998 C.ar    1  UNL1        0.2778
     11 O         138.9473  139.5486  168.3120 O.2     1  UNL1       -0.2655
     12 C         139.6180  139.5021  165.3883 C.3     1  UNL1        0.1465
     13 N         138.2886  139.6212  163.0725 N.3     1  UNL1       -0.2700
     14 C         137.4638  140.6621  162.3752 C.3     1  UNL1        0.0722
     15 C         137.4279  141.8840  163.2447 C.3     1  UNL1        0.0188
     16 C         138.2305  141.5981  164.4792 C.3     1  UNL1        0.0194
     17 C         138.7624  140.1996  164.3728 C.3     1  UNL1        0.0822
     18 C         138.5870  138.2436  162.5594 C.3     1  UNL1        0.1046
     19 C         139.8067  138.0038  161.7198 C.3     1  UNL1        0.1595
     20 C         142.0531  137.9451  163.0237 C.3     1  UNL1        0.1742
     21 O         140.9633  137.2307  162.2808 O.3     1  UNL1       -0.3496
     22 C         143.6513  142.6592  166.2633 C.3     1  UNL1        0.0754
     23 C         143.9775  142.6483  164.7993 C.ar    1  UNL1       -0.0160
     24 C         144.8593  141.5738  164.2353 C.ar    1  UNL1       -0.0030
     25 C         145.1856  141.5629  162.7713 C.ar    1  UNL1        0.0111
     26 C         144.6300  142.6264  161.8712 C.ar    1  UNL1        0.0577
     27 CL        144.9562  142.6155  160.4071 Cl      1  UNL1       -0.0822
     28 C         143.7482  143.7008  162.4350 C.ar    1  UNL1        0.0111
     29 C         143.4219  143.7118  163.8991 C.ar    1  UNL1       -0.0030
@<TRIPOS>BOND
     1    20    21    1
     2    21    19    1
     3    19    18    1
     4    18    13    1
     5    13    14    1
     6    14    15    1
     7    15    16    1
     8    16    17    1
     9    17    12    1
    10    12     1    1
    11     1     2   ar
    12     2     3   ar
    13     3    22    1
    14    22    23    1
    15    23    24   ar
    16    24    25   ar
    17    25    26   ar
    18    26    27    1
    19    26    28   ar
    20    28    29   ar
    21     3     4   ar
    22     4     5   ar
    23     5     6   ar
    24     6     7   ar
    25     7     8   ar
    26     8     9   ar
    27     9    10   ar
    28    10    11    2
    29    17    13    1
    30    10     1   ar
    31    29    23   ar
    32     9     4   ar
@<TRIPOS>MOLECULE
*****
 29 32 0 0 0
SMALL
GASTEIGER

@<TRIPOS>ATOM
      1 N         139.1881  139.4463  165.7010 N.ar    1  UNL1       -0.2155
      2 N         140.1138  140.4865  165.1434 N.ar    1  UNL1       -0.1693
      3 C         140.7254  141.5110  166.0524 C.ar    1  UNL1        0.1007
      4 C         140.4113  141.4952  167.5192 C.ar    1  UNL1        0.1014
      5 N         141.0229  142.5197  168.4282 N.ar    1  UNL1       -0.2424
      6 C         140.7088  142.5039  169.8948 C.ar    1  UNL1        0.0989
      7 C         139.7831  141.4636  170.4524 C.ar    1  UNL1        0.0208
      8 C         139.1715  140.4391  169.5434 C.ar    1  UNL1        0.0079
      9 C         139.4856  140.4549  168.0767 C.ar    1  UNL1        0.0764
     10 C         138.8740  139.4304  167.1676 C.ar    1  UNL1        0.2778
     11 O         137.9483  138.3902  167.7252 O.2     1  UNL1       -0.2655
     12 C         138.5765  138.4217  164.7919 C.3     1  UNL1        0.1465
     13 N         139.9865  137.9477  162.5711 N.3     1  UNL1       -0.2700
     14 C         139.8039  138.2519  161.1136 C.3     1  UNL1        0.0722
     15 C         138.5096  138.9930  160.9533 C.3     1  UNL1        0.0188
     16 C         137.8923  139.1468  162.3117 C.3     1  UNL1        0.0194
     17 C         138.8050  138.5008  163.3115 C.3     1  UNL1        0.0822
     18 C         141.1468  137.2185  163.1809 C.3     1  UNL1        0.1046
     19 C         142.2313  137.9848  163.8787 C.3     1  UNL1        0.1595
     20 C         143.4593  138.6572  166.0672 C.3     1  UNL1        0.1742
     21 O         142.3484  137.9263  165.3730 O.3     1  UNL1       -0.3496
     22 C         141.6511  142.5512  165.4948 C.3     1  UNL1        0.0754
     23 C         141.1438  143.5488  164.4961 C.ar    1  UNL1       -0.0160
     24 C         142.0544  144.0629  163.4206 C.ar    1  UNL1       -0.0030
     25 C         141.5471  145.0604  162.4219 C.ar    1  UNL1        0.0111
     26 C         140.1292  145.5439  162.4986 C.ar    1  UNL1        0.0577
     27 CL        139.6220  146.5415  161.4998 Cl      1  UNL1       -0.0822
     28 C         139.2187  145.0299  163.5740 C.ar    1  UNL1        0.0111
     29 C         139.7259  144.0323  164.5728 C.ar    1  UNL1       -0.0030
@<TRIPOS>BOND
     1    20    21    1
     2    21    19    1
     3    19    18    1
     4    18    13    1
     5    13    14    1
     6    14    15    1
     7    15    16    1
     8    16    17    1
     9    17    12    1
    10    12     1    1
    11     1     2   ar
    12     2     3   ar
    13     3    22    1
    14    22    23    1
    15    23    24   ar
    16    24    25   ar
    17    25    26   ar
    18    26    27    1
    19    26    28   ar
    20    28    29   ar
    21     3     4   ar
    22     4     5   ar
    23     5     6   ar
    24     6     7   ar
    25     7     8   ar
    26     8     9   ar
    27     9    10   ar
    28    10    11    2
    29    17    13    1
    30    10     1   ar
    31    29    23   ar
    32     9     4   ar
@<TRIPOS>MOLECULE
*****
 29 32 0 0 0
SMALL
GASTEIGER

@<TRIPOS>ATOM
      1 N         139.8051  139.9635  167.1717 N.ar    1  UNL1       -0.2155
      2 N         140.9120  140.4656  166.2926 N.ar    1  UNL1       -0.1693
      3 C         142.0035  141.3154  166.8726 C.ar    1  UNL1        0.1007
      4 C         141.9881  141.6632  168.3317 C.ar    1  UNL1        0.1014
      5 N         143.0795  142.5130  168.9117 N.ar    1  UNL1       -0.2424
      6 C         143.0641  142.8607  170.3707 C.ar    1  UNL1        0.0989
      7 C         141.9572  142.3587  171.2498 C.ar    1  UNL1        0.0208
      8 C         140.8657  141.5089  170.6698 C.ar    1  UNL1        0.0079
      9 C         140.8811  141.1611  169.2108 C.ar    1  UNL1        0.0764
     10 C         139.7896  140.3113  168.6307 C.ar    1  UNL1        0.2778
     11 O         138.6827  139.8092  169.5097 O.2     1  UNL1       -0.2655
     12 C         138.7135  139.1137  166.5916 C.3     1  UNL1        0.1465
     13 N         138.3540  139.7655  164.0244 N.3     1  UNL1       -0.2700
     14 C         138.4740  139.0376  162.7184 C.3     1  UNL1        0.0722
     15 C         138.8967  137.6282  163.0104 C.3     1  UNL1        0.0188
     16 C         139.0379  137.4852  164.4968 C.3     1  UNL1        0.0194
     17 C         138.7024  138.8061  165.1235 C.3     1  UNL1        0.0822
     18 C         137.9554  141.2008  164.2003 C.3     1  UNL1        0.1046
     19 C         137.2976  141.9402  163.0731 C.3     1  UNL1        0.1595
     20 C         138.0763  144.2586  163.9497 C.3     1  UNL1        0.1742
     21 O         137.6429  143.3771  162.8160 O.3     1  UNL1       -0.3496
     22 C         143.1104  141.8174  165.9936 C.3     1  UNL1        0.0754
     23 C         143.3885  141.1469  164.6810 C.ar    1  UNL1       -0.0160
     24 C         144.1569  139.8591  164.6446 C.ar    1  UNL1       -0.0030
     25 C         144.4350  139.1885  163.3320 C.ar    1  UNL1        0.0111
     26 C         143.9448  139.8057  162.0558 C.ar    1  UNL1        0.0577
     27 CL        144.2229  139.1351  160.7432 Cl      1  UNL1       -0.0822
     28 C         143.1764  141.0934  162.0921 C.ar    1  UNL1        0.0111
     29 C         142.8982  141.7640  163.4048 C.ar    1  UNL1       -0.0030
@<TRIPOS>BOND
     1    20    21    1
     2    21    19    1
     3    19    18    1
     4    18    13    1
     5    13    14    1
     6    14    15    1
     7    15    16    1
     8    16    17    1
     9    17    12    1
    10    12     1    1
    11     1     2   ar
    12     2     3   ar
    13     3    22    1
    14    22    23    1
    15    23    24   ar
    16    24    25   ar
    17    25    26   ar
    18    26    27    1
    19    26    28   ar
    20    28    29   ar
    21     3     4   ar
    22     4     5   ar
    23     5     6   ar
    24     6     7   ar
    25     7     8   ar
    26     8     9   ar
    27     9    10   ar
    28    10    11    2
    29    17    13    1
    30    10     1   ar
    31    29    23   ar
    32     9     4   ar
@<TRIPOS>MOLECULE
*****
 29 32 0 0 0
SMALL
GASTEIGER

@<TRIPOS>ATOM
      1 N         142.2596  141.9567  166.3393 N.ar    1  UNL1       -0.2155
      2 N         141.0632  141.1725  165.8879 N.ar    1  UNL1       -0.1693
      3 C         140.1966  140.4792  166.8969 C.ar    1  UNL1        0.1007
      4 C         140.5263  140.5700  168.3575 C.ar    1  UNL1        0.1014
      5 N         139.6597  139.8767  169.3665 N.ar    1  UNL1       -0.2424
      6 C         139.9894  139.9675  170.8270 C.ar    1  UNL1        0.0989
      7 C         141.1858  140.7516  171.2784 C.ar    1  UNL1        0.0208
      8 C         142.0524  141.4449  170.2694 C.ar    1  UNL1        0.0079
      9 C         141.7227  141.3541  168.8089 C.ar    1  UNL1        0.0764
     10 C         142.5893  142.0475  167.7998 C.ar    1  UNL1        0.2778
     11 O         143.7857  142.8316  168.2512 O.2     1  UNL1       -0.2655
     12 C         143.1263  142.6500  165.3302 C.3     1  UNL1        0.1465
     13 N         143.1274  143.8951  162.9649 N.3     1  UNL1       -0.2700
     14 C         142.1570  144.7674  162.2250 C.3     1  UNL1        0.0722
     15 C         140.9334  144.9269  163.0780 C.3     1  UNL1        0.0188
     16 C         141.1476  144.1531  164.3450 C.3     1  UNL1        0.0194
     17 C         142.5035  143.5154  164.2751 C.3     1  UNL1        0.0822
     18 C         144.4834  143.4760  162.4798 C.3     1  UNL1        0.1046
     19 C         144.7432  142.0417  162.1257 C.3     1  UNL1        0.1595
     20 C         145.1035  140.1106  163.8260 C.3     1  UNL1        0.1742
     21 O         145.6607  141.2137  162.9758 O.3     1  UNL1       -0.3496
     22 C         139.0002  139.6951  166.4455 C.3     1  UNL1        0.0754
     23 C         138.6069  139.6937  164.9980 C.ar    1  UNL1       -0.0160
     24 C         137.9606  140.9057  164.3952 C.ar    1  UNL1       -0.0030
     25 C         137.5673  140.9043  162.9477 C.ar    1  UNL1        0.0111
     26 C         137.8204  139.6909  162.1029 C.ar    1  UNL1        0.0577
     27 CL        137.4272  139.6895  160.6554 Cl      1  UNL1       -0.0822
     28 C         138.4668  138.4789  162.7057 C.ar    1  UNL1        0.0111
     29 C         138.8600  138.4803  164.1533 C.ar    1  UNL1       -0.0030
@<TRIPOS>BOND
     1    20    21    1
     2    21    19    1
     3    19    18    1
     4    18    13    1
     5    13    14    1
     6    14    15    1
     7    15    16    1
     8    16    17    1
     9    17    12    1
    10    12     1    1
    11     1     2   ar
    12     2     3   ar
    13     3    22    1
    14    22    23    1
    15    23    24   ar
    16    24    25   ar
    17    25    26   ar
    18    26    27    1
    19    26    28   ar
    20    28    29   ar
    21     3     4   ar
    22     4     5   ar
    23     5     6   ar
    24     6     7   ar
    25     7     8   ar
    26     8     9   ar
    27     9    10   ar
    28    10    11    2
    29    17    13    1
    30    10     1   ar
    31    29    23   ar
    32     9     4   ar
@<TRIPOS>MOLECULE
*****
 29 32 0 0 0
SMALL
GASTEIGER

@<TRIPOS>ATOM
      1 N         142.4560  141.5721  166.3515 N.ar    1  UNL1       -0.2155
      2 N         141.2929  140.7396  165.8998 N.ar    1  UNL1       -0.1693
      3 C         140.3402  140.1714  166.9095 C.ar    1  UNL1        0.1007
      4 C         140.5505  140.4359  168.3710 C.ar    1  UNL1        0.1014
      5 N         139.5978  139.8677  169.3807 N.ar    1  UNL1       -0.2424
      6 C         139.8082  140.1322  170.8421 C.ar    1  UNL1        0.0989
      7 C         140.9712  140.9648  171.2938 C.ar    1  UNL1        0.0208
      8 C         141.9239  141.5329  170.2841 C.ar    1  UNL1        0.0079
      9 C         141.7136  141.2685  168.8227 C.ar    1  UNL1        0.0764
     10 C         142.6663  141.8366  167.8130 C.ar    1  UNL1        0.2778
     11 O         143.8294  142.6692  168.2647 O.2     1  UNL1       -0.2655
     12 C         143.4087  142.1403  165.3418 C.3     1  UNL1        0.1465
     13 N         143.8414  141.7716  162.7299 N.3     1  UNL1       -0.2700
     14 C         144.3278  140.6309  161.8860 C.3     1  UNL1        0.0722
     15 C         144.6141  139.4717  162.7940 C.3     1  UNL1        0.0188
     16 C         144.3047  139.8961  164.1990 C.3     1  UNL1        0.0194
     17 C         143.8271  141.3175  164.1595 C.3     1  UNL1        0.0822
     18 C         143.4398  143.1283  162.2318 C.3     1  UNL1        0.1046
     19 C         144.1868  144.3464  162.6881 C.3     1  UNL1        0.1595
     20 C         142.0264  145.2747  163.7929 C.3     1  UNL1        0.1742
     21 O         143.5043  145.3647  163.5525 O.3     1  UNL1       -0.3496
     22 C         139.1771  139.3388  166.4578 C.3     1  UNL1        0.0754
     23 C         138.7384  139.3784  165.0240 C.ar    1  UNL1       -0.0160
     24 C         138.0956  140.6154  164.4701 C.ar    1  UNL1       -0.0030
     25 C         137.6569  140.6550  163.0363 C.ar    1  UNL1        0.0111
     26 C         137.8610  139.4576  162.1562 C.ar    1  UNL1        0.0577
     27 CL        137.4223  139.4971  160.7224 Cl      1  UNL1       -0.0822
     28 C         138.5037  138.2206  162.7100 C.ar    1  UNL1        0.0111
     29 C         138.9424  138.1810  164.1439 C.ar    1  UNL1       -0.0030
@<TRIPOS>BOND
     1    20    21    1
     2    21    19    1
     3    19    18    1
     4    18    13    1
     5    13    14    1
     6    14    15    1
     7    15    16    1
     8    16    17    1
     9    17    12    1
    10    12     1    1
    11     1     2   ar
    12     2     3   ar
    13     3    22    1
    14    22    23    1
    15    23    24   ar
    16    24    25   ar
    17    25    26   ar
    18    26    27    1
    19    26    28   ar
    20    28    29   ar
    21     3     4   ar
    22     4     5   ar
    23     5     6   ar
    24     6     7   ar
    25     7     8   ar
    26     8     9   ar
    27     9    10   ar
    28    10    11    2
    29    17    13    1
    30    10     1   ar
    31    29    23   ar
    32     9     4   ar
@<TRIPOS>MOLECULE
*****
 29 32 0 0 0
SMALL
GASTEIGER

@<TRIPOS>ATOM
      1 N         141.1311  139.7778  163.0016 N.ar    1  UNL1       -0.2155
      2 N         140.9918  141.0370  163.8047 N.ar    1  UNL1       -0.1693
      3 C         140.1265  141.0533  165.0299 C.ar    1  UNL1        0.1007
      4 C         139.4006  139.8103  165.4520 C.ar    1  UNL1        0.1014
      5 N         138.5354  139.8265  166.6772 N.ar    1  UNL1       -0.2424
      6 C         137.8095  138.5836  167.0992 C.ar    1  UNL1        0.0989
      7 C         137.9489  137.3244  166.2961 C.ar    1  UNL1        0.0208
      8 C         138.8141  137.3081  165.0709 C.ar    1  UNL1        0.0079
      9 C         139.5400  138.5511  164.6489 C.ar    1  UNL1        0.0764
     10 C         140.4052  138.5349  163.4236 C.ar    1  UNL1        0.2778
     11 O         140.5446  137.2757  162.6205 O.2     1  UNL1       -0.2655
     12 C         141.9964  139.7616  161.7764 C.3     1  UNL1        0.1465
     13 N         144.3091  141.0323  162.2020 N.3     1  UNL1       -0.2700
     14 C         144.9505  142.2766  161.6632 C.3     1  UNL1        0.0722
     15 C         144.0131  142.8855  160.6629 C.3     1  UNL1        0.0188
     16 C         142.7923  142.0174  160.5836 C.3     1  UNL1        0.0194
     17 C         142.9753  140.8721  161.5348 C.3     1  UNL1        0.0822
     18 C         144.8982  140.1101  163.2280 C.3     1  UNL1        0.1046
     19 C         144.2948  140.0298  164.5989 C.3     1  UNL1        0.1595
     20 C         143.0758  138.6664  166.4442 C.3     1  UNL1        0.1742
     21 O         143.6619  138.7526  165.0661 O.3     1  UNL1       -0.3496
     22 C         139.9872  142.3125  165.8330 C.3     1  UNL1        0.0754
     23 C         140.8075  142.5052  167.0740 C.ar    1  UNL1       -0.0160
     24 C         140.1743  143.0688  168.3115 C.ar    1  UNL1       -0.0030
     25 C         140.9946  143.2615  169.5525 C.ar    1  UNL1        0.0111
     26 C         142.4480  142.8907  169.5559 C.ar    1  UNL1        0.0577
     27 CL        143.2683  143.0834  170.7969 Cl      1  UNL1       -0.0822
     28 C         143.0812  142.3271  168.3184 C.ar    1  UNL1        0.0111
     29 C         142.2609  142.1344  167.0774 C.ar    1  UNL1       -0.0030
@<TRIPOS>BOND
     1    20    21    1
     2    21    19    1
     3    19    18    1
     4    18    13    1
     5    13    14    1
     6    14    15    1
     7    15    16    1
     8    16    17    1
     9    17    12    1
    10    12     1    1
    11     1     2   ar
    12     2     3   ar
    13     3    22    1
    14    22    23    1
    15    23    24   ar
    16    24    25   ar
    17    25    26   ar
    18    26    27    1
    19    26    28   ar
    20    28    29   ar
    21     3     4   ar
    22     4     5   ar
    23     5     6   ar
    24     6     7   ar
    25     7     8   ar
    26     8     9   ar
    27     9    10   ar
    28    10    11    2
    29    17    13    1
    30    10     1   ar
    31    29    23   ar
    32     9     4   ar
@<TRIPOS>MOLECULE
*****
 29 32 0 0 0
SMALL
GASTEIGER

@<TRIPOS>ATOM
      1 N         142.3200  140.3990  166.3095 N.ar    1  UNL1       -0.2155
      2 N         141.5292  141.5278  165.7175 N.ar    1  UNL1       -0.1693
      3 C         140.7649  142.4581  166.6121 C.ar    1  UNL1        0.1007
      4 C         140.7914  142.2596  168.0988 C.ar    1  UNL1        0.1014
      5 N         140.0271  143.1899  168.9934 N.ar    1  UNL1       -0.2424
      6 C         140.0536  142.9914  170.4799 C.ar    1  UNL1        0.0989
      7 C         140.8445  141.8626  171.0718 C.ar    1  UNL1        0.0208
      8 C         141.6088  140.9323  170.1772 C.ar    1  UNL1        0.0079
      9 C         141.5822  141.1308  168.6907 C.ar    1  UNL1        0.0764
     10 C         142.3465  140.2005  167.7960 C.ar    1  UNL1        0.2778
     11 O         143.1374  139.0717  168.3880 O.2     1  UNL1       -0.2655
     12 C         143.0843  139.4687  165.4148 C.3     1  UNL1        0.1465
     13 N         142.8205  138.5093  162.9339 N.3     1  UNL1       -0.2700
     14 C         141.8025  137.6655  162.2257 C.3     1  UNL1        0.0722
     15 C         140.7188  137.3262  163.2058 C.3     1  UNL1        0.0188
     16 C         141.0671  137.9604  164.5197 C.3     1  UNL1        0.0194
     17 C         142.3660  138.6916  164.3517 C.3     1  UNL1        0.0822
     18 C         144.0731  139.0721  162.3303 C.3     1  UNL1        0.1046
     19 C         144.1526  140.5312  161.9915 C.3     1  UNL1        0.1595
     20 C         145.7446  141.5502  163.7739 C.3     1  UNL1        0.1742
     21 O         145.3837  141.3154  162.3370 O.3     1  UNL1       -0.3496
     22 C         139.9740  143.5869  166.0202 C.3     1  UNL1        0.0754
     23 C         140.2028  143.9967  164.5955 C.ar    1  UNL1       -0.0160
     24 C         141.5220  144.5814  164.1858 C.ar    1  UNL1       -0.0030
     25 C         141.7507  144.9912  162.7612 C.ar    1  UNL1        0.0111
     26 C         140.6602  144.8163  161.7461 C.ar    1  UNL1        0.0577
     27 CL        140.8890  145.2261  160.3215 Cl      1  UNL1       -0.0822
     28 C         139.3411  144.2316  162.1558 C.ar    1  UNL1        0.0111
     29 C         139.1123  143.8218  163.5805 C.ar    1  UNL1       -0.0030
@<TRIPOS>BOND
     1    20    21    1
     2    21    19    1
     3    19    18    1
     4    18    13    1
     5    13    14    1
     6    14    15    1
     7    15    16    1
     8    16    17    1
     9    17    12    1
    10    12     1    1
    11     1     2   ar
    12     2     3   ar
    13     3    22    1
    14    22    23    1
    15    23    24   ar
    16    24    25   ar
    17    25    26   ar
    18    26    27    1
    19    26    28   ar
    20    28    29   ar
    21     3     4   ar
    22     4     5   ar
    23     5     6   ar
    24     6     7   ar
    25     7     8   ar
    26     8     9   ar
    27     9    10   ar
    28    10    11    2
    29    17    13    1
    30    10     1   ar
    31    29    23   ar
    32     9     4   ar
@<TRIPOS>MOLECULE
*****
 29 32 0 0 0
SMALL
GASTEIGER

@<TRIPOS>ATOM
      1 N         142.3648  139.6111  166.7473 N.ar    1  UNL1       -0.2155
      2 N         141.5901  140.6685  166.0180 N.ar    1  UNL1       -0.1693
      3 C         140.8664  141.7332  166.7878 C.ar    1  UNL1        0.1007
      4 C         140.9175  141.7406  168.2870 C.ar    1  UNL1        0.1014
      5 N         140.1938  142.8053  169.0568 N.ar    1  UNL1       -0.2424
      6 C         140.2449  142.8127  170.5559 C.ar    1  UNL1        0.0989
      7 C         141.0196  141.7553  171.2852 C.ar    1  UNL1        0.0208
      8 C         141.7432  140.6906  170.5154 C.ar    1  UNL1        0.0079
      9 C         141.6922  140.6832  169.0163 C.ar    1  UNL1        0.0764
     10 C         142.4158  139.6185  168.2464 C.ar    1  UNL1        0.2778
     11 O         143.1905  138.5611  168.9756 O.2     1  UNL1       -0.2655
     12 C         143.0884  138.5463  165.9774 C.3     1  UNL1        0.1465
     13 N         142.3562  138.0341  163.4582 N.3     1  UNL1       -0.2700
     14 C         142.8730  138.4201  162.1041 C.3     1  UNL1        0.0722
     15 C         144.0771  139.2933  162.2991 C.3     1  UNL1        0.0188
     16 C         144.3043  139.4468  163.7738 C.3     1  UNL1        0.0194
     17 C         143.2407  138.6686  164.4902 C.3     1  UNL1        0.0822
     18 C         141.1640  137.1659  163.7323 C.3     1  UNL1        0.1046
     19 C         139.8250  137.7904  163.9913 C.3     1  UNL1        0.1595
     20 C         138.6322  138.2100  161.7218 C.3     1  UNL1        0.1742
     21 O         138.6815  137.5278  163.0568 O.3     1  UNL1       -0.3496
     22 C         140.0917  142.7906  166.0586 C.3     1  UNL1        0.0754
     23 C         139.5864  142.5273  164.6711 C.ar    1  UNL1       -0.0160
     24 C         138.2455  141.8854  164.4704 C.ar    1  UNL1       -0.0030
     25 C         137.7402  141.6221  163.0829 C.ar    1  UNL1        0.0111
     26 C         138.5756  142.0007  161.8960 C.ar    1  UNL1        0.0577
     27 CL        138.0703  141.7375  160.5084 Cl      1  UNL1       -0.0822
     28 C         139.9164  142.6426  162.0966 C.ar    1  UNL1        0.0111
     29 C         140.4218  142.9059  163.4842 C.ar    1  UNL1       -0.0030
@<TRIPOS>BOND
     1    20    21    1
     2    21    19    1
     3    19    18    1
     4    18    13    1
     5    13    14    1
     6    14    15    1
     7    15    16    1
     8    16    17    1
     9    17    12    1
    10    12     1    1
    11     1     2   ar
    12     2     3   ar
    13     3    22    1
    14    22    23    1
    15    23    24   ar
    16    24    25   ar
    17    25    26   ar
    18    26    27    1
    19    26    28   ar
    20    28    29   ar
    21     3     4   ar
    22     4     5   ar
    23     5     6   ar
    24     6     7   ar
    25     7     8   ar
    26     8     9   ar
    27     9    10   ar
    28    10    11    2
    29    17    13    1
    30    10     1   ar
    31    29    23   ar
    32     9     4   ar
@<TRIPOS>MOLECULE
*****
 29 32 0 0 0
SMALL
GASTEIGER

@<TRIPOS>ATOM
      1 N         142.3257  140.0631  166.1025 N.ar    1  UNL1       -0.2155
      2 N         141.4690  141.2295  165.7079 N.ar    1  UNL1       -0.1693
      3 C         140.8019  142.0610  166.7631 C.ar    1  UNL1        0.1007
      4 C         140.9913  141.7261  168.2130 C.ar    1  UNL1        0.1014
      5 N         140.3242  142.5576  169.2682 N.ar    1  UNL1       -0.2424
      6 C         140.5137  142.2226  170.7180 C.ar    1  UNL1        0.0989
      7 C         141.3703  141.0562  171.1125 C.ar    1  UNL1        0.0208
      8 C         142.0375  140.2248  170.0573 C.ar    1  UNL1        0.0079
      9 C         141.8480  140.5597  168.6075 C.ar    1  UNL1        0.0764
     10 C         142.5151  139.7282  167.5522 C.ar    1  UNL1        0.2778
     11 O         143.3718  138.5618  167.9468 O.2     1  UNL1       -0.2655
     12 C         142.9928  139.2317  165.0471 C.3     1  UNL1        0.1465
     13 N         143.7285  139.3613  162.4807 N.3     1  UNL1       -0.2700
     14 C         144.4895  140.3466  161.6439 C.3     1  UNL1        0.0722
     15 C         144.8931  141.4903  162.5267 C.3     1  UNL1        0.0188
     16 C         144.3816  141.2118  163.9090 C.3     1  UNL1        0.0194
     17 C         143.6618  139.8960  163.8805 C.3     1  UNL1        0.0822
     18 C         143.1379  138.0684  162.0016 C.3     1  UNL1        0.1046
     19 C         141.6757  137.9865  161.6767 C.3     1  UNL1        0.1595
     20 C         139.9081  137.7418  163.5649 C.3     1  UNL1        0.1742
     21 O         140.7707  137.1234  162.5049 O.3     1  UNL1       -0.3496
     22 C         139.9452  143.2274  166.3686 C.3     1  UNL1        0.0754
     23 C         140.0677  143.8172  164.9949 C.ar    1  UNL1       -0.0160
     24 C         141.4104  144.2416  164.4778 C.ar    1  UNL1       -0.0030
     25 C         141.5329  144.8314  163.1041 C.ar    1  UNL1        0.0111
     26 C         140.3128  144.9969  162.2474 C.ar    1  UNL1        0.0577
     27 CL        140.4353  145.5867  160.8738 Cl      1  UNL1       -0.0822
     28 C         138.9702  144.5726  162.7644 C.ar    1  UNL1        0.0111
     29 C         138.8476  143.9827  164.1382 C.ar    1  UNL1       -0.0030
@<TRIPOS>BOND
     1    20    21    1
     2    21    19    1
     3    19    18    1
     4    18    13    1
     5    13    14    1
     6    14    15    1
     7    15    16    1
     8    16    17    1
     9    17    12    1
    10    12     1    1
    11     1     2   ar
    12     2     3   ar
    13     3    22    1
    14    22    23    1
    15    23    24   ar
    16    24    25   ar
    17    25    26   ar
    18    26    27    1
    19    26    28   ar
    20    28    29   ar
    21     3     4   ar
    22     4     5   ar
    23     5     6   ar
    24     6     7   ar
    25     7     8   ar
    26     8     9   ar
    27     9    10   ar
    28    10    11    2
    29    17    13    1
    30    10     1   ar
    31    29    23   ar
    32     9     4   ar
