@<TRIPOS>MOLECULE
*****
 40 45 0 0 0
SMALL
GASTEIGER

@<TRIPOS>ATOM
      1 C         137.9047  140.0962  161.8670 C.3     1  UNL1        0.0570
      2 C         137.6978  140.3459  163.3314 C.3     1  UNL1        0.0331
      3 C         137.6989  141.7496  163.8604 C.3     1  UNL1        0.0735
      4 N         137.9070  142.9035  162.9248 N.3     1  UNL1       -0.2710
      5 C         138.1139  142.6536  161.4602 C.3     1  UNL1        0.0735
      6 C         138.1128  141.2500  160.9314 C.3     1  UNL1        0.0331
      7 N         137.9036  138.6925  161.3381 N.3     1  UNL1       -0.2934
      8 H         137.4172  138.1187  162.0270 H       1  UNL1        0.1236
      9 C         139.2016  138.0027  161.0388 C.3     1  UNL1        0.1152
     10 O         145.8996  141.6370  162.6758 O.2     1  UNL1       -0.2707
     11 C         144.8488  140.6274  163.0315 C.2     1  UNL1        0.2718
     12 C         144.9798  139.8197  164.2886 C.3     1  UNL1        0.2898
     13 O         143.9290  138.8101  164.6444 O.3     1  UNL1       -0.4628
     14 C         142.7471  138.6083  163.7430 C.ar    1  UNL1        0.1708
     15 C         141.6963  137.5987  164.0988 C.ar    1  UNL1        0.0411
     16 C         140.5145  137.3968  163.1974 C.ar    1  UNL1        0.0193
     17 C         140.3834  138.2046  161.9402 C.ar    1  UNL1        0.0765
     18 N         141.4343  139.2142  161.5845 N.ar    1  UNL1       -0.2304
     19 C         142.6161  139.4160  162.4859 C.ar    1  UNL1        0.1682
     20 N         143.6669  140.4256  162.1302 N.am    1  UNL1       -0.2639
     21 H         143.5809  140.9557  161.3051 H       1  UNL1        0.1565
     22 C         137.9081  144.3071  163.4537 C.3     1  UNL1        0.0970
     23 C         138.8948  144.7101  164.5091 C.3     1  UNL1        0.1278
     24 N         140.3591  144.4590  164.3019 N.ar    1  UNL1       -0.2791
     25 C         141.0947  145.1724  163.2065 C.ar    1  UNL1        0.2621
     26 O         140.3660  146.1369  162.3183 O.2     1  UNL1       -0.2669
     27 C         142.5589  144.9214  162.9992 C.ar    1  UNL1        0.0609
     28 C         143.2876  143.9569  163.8874 C.ar    1  UNL1        0.0079
     29 C         142.5520  143.2435  164.9828 C.ar    1  UNL1        0.0346
     30 C         143.2806  142.2790  165.8710 C.ar    1  UNL1        0.0078
     31 C         142.5450  141.5656  166.9664 C.ar    1  UNL1        0.0583
     32 C         141.0808  141.8166  167.1736 C.ar    1  UNL1        0.2330
     33 N         140.3521  142.7811  166.2854 N.ar    1  UNL1       -0.1938
     34 C         141.0877  143.4946  165.1900 C.ar    1  UNL1        0.1492
     35 O         140.3452  141.1032  168.2690 O.3     1  UNL1       -0.4158
     36 C         139.3108  140.0713  167.9294 C.ar    1  UNL1        0.2700
     37 C         139.0843  139.4616  166.5777 C.ar    1  UNL1        0.1046
     38 C         137.9550  138.4814  166.6946 C.ar    1  UNL1        0.2172
     39 O         137.4834  138.4853  168.1186 O.2     1  UNL1       -0.3472
     40 N         138.3214  139.4679  168.8817 N.ar    1  UNL1       -0.0383
@<TRIPOS>BOND
     1    10    11    2
     2    11    12    1
     3    12    13    1
     4    13    14    1
     5    14    15   ar
     6    15    16   ar
     7    16    17   ar
     8    17     9    1
     9     9     7    1
    10     7     1    1
    11     1     2    1
    12     2     3    1
    13     3     4    1
    14     4    22    1
    15    22    23    1
    16    23    24    1
    17    24    25   ar
    18    25    26    2
    19    25    27   ar
    20    27    28   ar
    21    28    29   ar
    22    29    30   ar
    23    30    31   ar
    24    31    32   ar
    25    32    35    1
    26    35    36    1
    27    36    37   ar
    28    37    38   ar
    29    38    39   ar
    30    39    40   ar
    31    32    33   ar
    32    33    34   ar
    33     4     5    1
    34     5     6    1
    35    17    18   ar
    36    18    19   ar
    37    19    20    1
    38    20    11   am
    39    19    14   ar
    40     6     1    1
    41    34    24   ar
    42    34    29   ar
    43    40    36   ar
    44     7     8    1
    45    20    21    1
@<TRIPOS>MOLECULE
*****
 40 45 0 0 0
SMALL
GASTEIGER

@<TRIPOS>ATOM
      1 C         143.9607  139.5193  163.4468 C.3     1  UNL1        0.0570
      2 C         142.9098  139.1945  162.4270 C.3     1  UNL1        0.0331
      3 C         141.6314  138.5345  162.8515 C.3     1  UNL1        0.0735
      4 N         141.4040  138.1994  164.2958 N.3     1  UNL1       -0.2710
      5 C         142.4550  138.5242  165.3156 C.3     1  UNL1        0.0735
      6 C         143.7333  139.1842  164.8911 C.3     1  UNL1        0.0331
      7 N         145.2390  140.1793  163.0222 N.3     1  UNL1       -0.2934
      8 H         145.9981  139.6678  163.4724 H       1  UNL1        0.1236
      9 C         145.4648  141.6335  163.3126 C.3     1  UNL1        0.1152
     10 O         140.3079  145.5374  158.9633 O.2     1  UNL1       -0.2707
     11 C         140.8891  145.2077  160.3063 C.2     1  UNL1        0.2718
     12 C         140.3324  145.8495  161.5424 C.3     1  UNL1        0.2898
     13 O         140.9135  145.5198  162.8854 O.3     1  UNL1       -0.4628
     14 C         142.0513  144.5482  162.9922 C.ar    1  UNL1        0.1708
     15 C         142.6324  144.2185  164.3352 C.ar    1  UNL1        0.0411
     16 C         143.7702  143.2469  164.4420 C.ar    1  UNL1        0.0193
     17 C         144.3270  142.6051  163.2058 C.ar    1  UNL1        0.0765
     18 N         143.7459  142.9348  161.8628 N.ar    1  UNL1       -0.2304
     19 C         142.6080  143.9064  161.7561 C.ar    1  UNL1        0.1682
     20 N         142.0269  144.2362  160.4131 N.am    1  UNL1       -0.2639
     21 H         142.3923  143.8149  159.6017 H       1  UNL1        0.1565
     22 C         140.1256  137.5394  164.7204 C.3     1  UNL1        0.0970
     23 C         138.9331  138.3756  165.0790 C.3     1  UNL1        0.1278
     24 N         138.8534  139.8027  164.6238 N.ar    1  UNL1       -0.2791
     25 C         138.3150  140.1265  163.2618 C.ar    1  UNL1        0.2621
     26 O         137.8561  139.0232  162.3549 O.2     1  UNL1       -0.2669
     27 C         138.2353  141.5535  162.8066 C.ar    1  UNL1        0.0609
     28 C         138.6941  142.6568  163.7135 C.ar    1  UNL1        0.0079
     29 C         139.2326  142.3329  165.0755 C.ar    1  UNL1        0.0346
     30 C         139.6914  143.4361  165.9824 C.ar    1  UNL1        0.0078
     31 C         140.2299  143.1123  167.3445 C.ar    1  UNL1        0.0583
     32 C         140.3095  141.6853  167.7996 C.ar    1  UNL1        0.2330
     33 N         139.8507  140.5820  166.8927 N.ar    1  UNL1       -0.1938
     34 C         139.3122  140.9058  165.5307 C.ar    1  UNL1        0.1492
     35 O         140.8480  141.3614  169.1617 O.3     1  UNL1       -0.4158
     36 C         142.0247  142.1185  169.7025 C.ar    1  UNL1        0.2700
     37 C         143.4672  141.8386  169.4012 C.ar    1  UNL1        0.1046
     38 C         144.2995  142.8355  170.1519 C.ar    1  UNL1        0.2172
     39 O         143.3712  143.7315  170.9172 O.2     1  UNL1       -0.3472
     40 N         141.9654  143.2884  170.6394 N.ar    1  UNL1       -0.0383
@<TRIPOS>BOND
     1    10    11    2
     2    11    12    1
     3    12    13    1
     4    13    14    1
     5    14    15   ar
     6    15    16   ar
     7    16    17   ar
     8    17     9    1
     9     9     7    1
    10     7     1    1
    11     1     2    1
    12     2     3    1
    13     3     4    1
    14     4    22    1
    15    22    23    1
    16    23    24    1
    17    24    25   ar
    18    25    26    2
    19    25    27   ar
    20    27    28   ar
    21    28    29   ar
    22    29    30   ar
    23    30    31   ar
    24    31    32   ar
    25    32    35    1
    26    35    36    1
    27    36    37   ar
    28    37    38   ar
    29    38    39   ar
    30    39    40   ar
    31    32    33   ar
    32    33    34   ar
    33     4     5    1
    34     5     6    1
    35    17    18   ar
    36    18    19   ar
    37    19    20    1
    38    20    11   am
    39    19    14   ar
    40     6     1    1
    41    34    24   ar
    42    34    29   ar
    43    40    36   ar
    44     7     8    1
    45    20    21    1
@<TRIPOS>MOLECULE
*****
 40 45 0 0 0
SMALL
GASTEIGER

@<TRIPOS>ATOM
      1 C         137.9122  143.1153  162.8961 C.3     1  UNL1        0.0570
      2 C         138.0528  142.0184  161.8827 C.3     1  UNL1        0.0331
      3 C         138.2415  140.6003  162.3336 C.3     1  UNL1        0.0735
      4 N         138.2896  140.2791  163.7981 N.3     1  UNL1       -0.2710
      5 C         138.1490  141.3760  164.8115 C.3     1  UNL1        0.0735
      6 C         137.9603  142.7941  164.3605 C.3     1  UNL1        0.0331
      7 N         137.7235  144.5333  162.4451 N.3     1  UNL1       -0.2934
      8 H         137.3792  144.4939  161.4858 H       1  UNL1        0.1236
      9 C         138.8850  145.4827  162.4495 C.3     1  UNL1        0.1152
     10 O         144.5786  141.8781  158.5328 O.2     1  UNL1       -0.2707
     11 C         144.0827  142.5497  159.7791 C.2     1  UNL1        0.2718
     12 C         144.9889  142.6914  160.9660 C.3     1  UNL1        0.2898
     13 O         144.4930  143.3630  162.2122 O.3     1  UNL1       -0.4628
     14 C         143.0910  143.8929  162.2715 C.ar    1  UNL1        0.1708
     15 C         142.5952  144.5645  163.5178 C.ar    1  UNL1        0.0411
     16 C         141.1932  145.0944  163.5771 C.ar    1  UNL1        0.0193
     17 C         140.2870  144.9527  162.3902 C.ar    1  UNL1        0.0765
     18 N         140.7828  144.2811  161.1439 N.ar    1  UNL1       -0.2304
     19 C         142.1849  143.7512  161.0846 C.ar    1  UNL1        0.1682
     20 N         142.6807  143.0796  159.8384 N.am    1  UNL1       -0.2639
     21 H         142.0860  142.9866  159.0594 H       1  UNL1        0.1565
     22 C         138.4783  138.8610  164.2491 C.3     1  UNL1        0.0970
     23 C         139.6777  138.4881  165.0689 C.3     1  UNL1        0.1278
     24 N         141.0499  138.8927  164.6177 N.ar    1  UNL1       -0.2791
     25 C         141.7462  138.1124  163.5424 C.ar    1  UNL1        0.2621
     26 O         141.0704  136.9275  162.9183 O.2     1  UNL1       -0.2669
     27 C         143.1183  138.5170  163.0911 C.ar    1  UNL1        0.0609
     28 C         143.7941  139.7019  163.7152 C.ar    1  UNL1        0.0079
     29 C         143.0978  140.4822  164.7905 C.ar    1  UNL1        0.0346
     30 C         143.7735  141.6670  165.4145 C.ar    1  UNL1        0.0078
     31 C         143.0771  142.4473  166.4898 C.ar    1  UNL1        0.0583
     32 C         141.7050  142.0427  166.9410 C.ar    1  UNL1        0.2330
     33 N         141.0292  140.8578  166.3170 N.ar    1  UNL1       -0.1938
     34 C         141.7256  140.0775  165.2417 C.ar    1  UNL1        0.1492
     35 O         141.0087  142.8230  168.0163 O.3     1  UNL1       -0.4158
     36 C         141.0232  142.3270  169.4319 C.ar    1  UNL1        0.2700
     37 C         141.6971  141.0798  169.9223 C.ar    1  UNL1        0.1046
     38 C         141.4568  140.9730  171.3990 C.ar    1  UNL1        0.2172
     39 O         140.6343  142.1542  171.8214 O.2     1  UNL1       -0.3472
     40 N         140.3663  142.9910  170.6056 N.ar    1  UNL1       -0.0383
@<TRIPOS>BOND
     1    10    11    2
     2    11    12    1
     3    12    13    1
     4    13    14    1
     5    14    15   ar
     6    15    16   ar
     7    16    17   ar
     8    17     9    1
     9     9     7    1
    10     7     1    1
    11     1     2    1
    12     2     3    1
    13     3     4    1
    14     4    22    1
    15    22    23    1
    16    23    24    1
    17    24    25   ar
    18    25    26    2
    19    25    27   ar
    20    27    28   ar
    21    28    29   ar
    22    29    30   ar
    23    30    31   ar
    24    31    32   ar
    25    32    35    1
    26    35    36    1
    27    36    37   ar
    28    37    38   ar
    29    38    39   ar
    30    39    40   ar
    31    32    33   ar
    32    33    34   ar
    33     4     5    1
    34     5     6    1
    35    17    18   ar
    36    18    19   ar
    37    19    20    1
    38    20    11   am
    39    19    14   ar
    40     6     1    1
    41    34    24   ar
    42    34    29   ar
    43    40    36   ar
    44     7     8    1
    45    20    21    1
@<TRIPOS>MOLECULE
*****
 40 45 0 0 0
SMALL
GASTEIGER

@<TRIPOS>ATOM
      1 C         140.6724  144.4239  164.0490 C.3     1  UNL1        0.0570
      2 C         140.3413  143.7070  165.3242 C.3     1  UNL1        0.0331
      3 C         141.3297  142.7530  165.9269 C.3     1  UNL1        0.0735
      4 N         142.6493  142.5160  165.2541 N.3     1  UNL1       -0.2710
      5 C         142.9804  143.2330  163.9788 C.3     1  UNL1        0.0735
      6 C         141.9920  144.1869  163.3762 C.3     1  UNL1        0.0331
      7 N         139.6840  145.3778  163.4464 N.3     1  UNL1       -0.2934
      8 H         139.3340  145.9591  164.2080 H       1  UNL1        0.1236
      9 C         138.4839  144.8522  162.7159 C.3     1  UNL1        0.1152
     10 O         140.0848  138.4208  158.6141 O.2     1  UNL1       -0.2707
     11 C         139.3919  139.0890  159.7646 C.2     1  UNL1        0.2718
     12 C         138.5398  138.2814  160.6983 C.3     1  UNL1        0.2898
     13 O         137.8470  138.9495  161.8487 O.3     1  UNL1       -0.4628
     14 C         138.0062  140.4252  162.0655 C.ar    1  UNL1        0.1708
     15 C         137.3133  141.0933  163.2160 C.ar    1  UNL1        0.0411
     16 C         137.4726  142.5689  163.4328 C.ar    1  UNL1        0.0193
     17 C         138.3247  143.3766  162.4991 C.ar    1  UNL1        0.0765
     18 N         139.0176  142.7085  161.3487 N.ar    1  UNL1       -0.2304
     19 C         138.8583  141.2327  161.1319 C.ar    1  UNL1        0.1682
     20 N         139.5512  140.5646  159.9814 N.am    1  UNL1       -0.2639
     21 H         140.1104  141.0946  159.3686 H       1  UNL1        0.1565
     22 C         143.6377  141.5621  165.8567 C.3     1  UNL1        0.0970
     23 C         143.1983  140.1889  166.2702 C.3     1  UNL1        0.1278
     24 N         142.3475  139.3647  165.3499 N.ar    1  UNL1       -0.2791
     25 C         142.9166  138.8525  164.0601 C.ar    1  UNL1        0.2621
     26 O         144.3365  139.1645  163.6905 O.2     1  UNL1       -0.2669
     27 C         142.0658  138.0283  163.1398 C.ar    1  UNL1        0.0609
     28 C         140.6459  137.7164  163.5094 C.ar    1  UNL1        0.0079
     29 C         140.0768  138.2286  164.7993 C.ar    1  UNL1        0.0346
     30 C         138.6569  137.9166  165.1689 C.ar    1  UNL1        0.0078
     31 C         138.0879  138.4288  166.4587 C.ar    1  UNL1        0.0583
     32 C         138.9386  139.2530  167.3790 C.ar    1  UNL1        0.2330
     33 N         140.3586  139.5650  167.0094 N.ar    1  UNL1       -0.1938
     34 C         140.9276  139.0528  165.7196 C.ar    1  UNL1        0.1492
     35 O         138.3695  139.7652  168.6689 O.3     1  UNL1       -0.4158
     36 C         139.2694  140.4060  169.6836 C.ar    1  UNL1        0.2700
     37 C         139.9279  141.7477  169.5557 C.ar    1  UNL1        0.1046
     38 C         140.7342  141.9886  170.7974 C.ar    1  UNL1        0.2172
     39 O         140.5741  140.7957  171.6927 O.2     1  UNL1       -0.3472
     40 N         139.6688  139.8177  171.0044 N.ar    1  UNL1       -0.0383
@<TRIPOS>BOND
     1    10    11    2
     2    11    12    1
     3    12    13    1
     4    13    14    1
     5    14    15   ar
     6    15    16   ar
     7    16    17   ar
     8    17     9    1
     9     9     7    1
    10     7     1    1
    11     1     2    1
    12     2     3    1
    13     3     4    1
    14     4    22    1
    15    22    23    1
    16    23    24    1
    17    24    25   ar
    18    25    26    2
    19    25    27   ar
    20    27    28   ar
    21    28    29   ar
    22    29    30   ar
    23    30    31   ar
    24    31    32   ar
    25    32    35    1
    26    35    36    1
    27    36    37   ar
    28    37    38   ar
    29    38    39   ar
    30    39    40   ar
    31    32    33   ar
    32    33    34   ar
    33     4     5    1
    34     5     6    1
    35    17    18   ar
    36    18    19   ar
    37    19    20    1
    38    20    11   am
    39    19    14   ar
    40     6     1    1
    41    34    24   ar
    42    34    29   ar
    43    40    36   ar
    44     7     8    1
    45    20    21    1
@<TRIPOS>MOLECULE
*****
 40 45 0 0 0
SMALL
GASTEIGER

@<TRIPOS>ATOM
      1 C         140.1361  138.2155  161.7102 C.3     1  UNL1        0.0570
      2 C         140.3517  137.7732  163.1272 C.3     1  UNL1        0.0331
      3 C         141.6898  137.9650  163.7774 C.3     1  UNL1        0.0735
      4 N         142.8123  138.5990  163.0106 N.3     1  UNL1       -0.2710
      5 C         142.5967  139.0413  161.5935 C.3     1  UNL1        0.0735
      6 C         141.2586  138.8495  160.9434 C.3     1  UNL1        0.0331
      7 N         138.7980  138.0237  161.0601 N.3     1  UNL1       -0.2934
      8 H         138.9558  138.0355  160.0525 H       1  UNL1        0.1236
      9 C         137.6849  138.9908  161.3354 C.3     1  UNL1        0.1152
     10 O         141.5243  145.4900  159.3939 O.2     1  UNL1       -0.2707
     11 C         140.5517  144.7720  160.2818 C.2     1  UNL1        0.2718
     12 C         139.8862  145.5022  161.4104 C.3     1  UNL1        0.2898
     13 O         138.9135  144.7842  162.2983 O.3     1  UNL1       -0.4628
     14 C         138.6064  143.3359  162.0576 C.ar    1  UNL1        0.1708
     15 C         137.6337  142.6178  162.9455 C.ar    1  UNL1        0.0411
     16 C         137.3266  141.1695  162.7048 C.ar    1  UNL1        0.0193
     17 C         137.9921  140.4391  161.5761 C.ar    1  UNL1        0.0765
     18 N         138.9647  141.1572  160.6882 N.ar    1  UNL1       -0.2304
     19 C         139.2718  142.6056  160.9290 C.ar    1  UNL1        0.1682
     20 N         140.2445  143.3237  160.0411 N.am    1  UNL1       -0.2639
     21 H         140.6813  142.8444  159.3003 H       1  UNL1        0.1565
     22 C         144.1504  138.7908  163.6607 C.3     1  UNL1        0.0970
     23 C         144.3375  139.8674  164.6882 C.3     1  UNL1        0.1278
     24 N         143.8675  141.2636  164.4058 N.ar    1  UNL1       -0.2791
     25 C         144.7348  142.2026  163.6210 C.ar    1  UNL1        0.2621
     26 O         146.0723  141.7454  163.1186 O.2     1  UNL1       -0.2669
     27 C         144.2649  143.5988  163.3385 C.ar    1  UNL1        0.0609
     28 C         142.9274  144.0560  163.8410 C.ar    1  UNL1        0.0079
     29 C         142.0601  143.1170  164.6258 C.ar    1  UNL1        0.0346
     30 C         140.7227  143.5741  165.1282 C.ar    1  UNL1        0.0078
     31 C         139.8554  142.6351  165.9130 C.ar    1  UNL1        0.0583
     32 C         140.3254  141.2390  166.1954 C.ar    1  UNL1        0.2330
     33 N         141.6628  140.7818  165.6930 N.ar    1  UNL1       -0.1938
     34 C         142.5301  141.7208  164.9082 C.ar    1  UNL1        0.1492
     35 O         139.4580  140.3000  166.9803 O.3     1  UNL1       -0.4158
     36 C         139.6563  140.1556  168.4601 C.ar    1  UNL1        0.2700
     37 C         140.9431  140.3657  169.2019 C.ar    1  UNL1        0.1046
     38 C         140.6848  140.1157  170.6582 C.ar    1  UNL1        0.2172
     39 O         139.2384  139.7511  170.8164 O.2     1  UNL1       -0.3472
     40 N         138.6028  139.7757  169.4580 N.ar    1  UNL1       -0.0383
@<TRIPOS>BOND
     1    10    11    2
     2    11    12    1
     3    12    13    1
     4    13    14    1
     5    14    15   ar
     6    15    16   ar
     7    16    17   ar
     8    17     9    1
     9     9     7    1
    10     7     1    1
    11     1     2    1
    12     2     3    1
    13     3     4    1
    14     4    22    1
    15    22    23    1
    16    23    24    1
    17    24    25   ar
    18    25    26    2
    19    25    27   ar
    20    27    28   ar
    21    28    29   ar
    22    29    30   ar
    23    30    31   ar
    24    31    32   ar
    25    32    35    1
    26    35    36    1
    27    36    37   ar
    28    37    38   ar
    29    38    39   ar
    30    39    40   ar
    31    32    33   ar
    32    33    34   ar
    33     4     5    1
    34     5     6    1
    35    17    18   ar
    36    18    19   ar
    37    19    20    1
    38    20    11   am
    39    19    14   ar
    40     6     1    1
    41    34    24   ar
    42    34    29   ar
    43    40    36   ar
    44     7     8    1
    45    20    21    1
@<TRIPOS>MOLECULE
*****
 40 45 0 0 0
SMALL
GASTEIGER

@<TRIPOS>ATOM
      1 C         141.5611  144.2726  163.4905 C.3     1  UNL1        0.0570
      2 C         140.5201  143.8630  162.4913 C.3     1  UNL1        0.0331
      3 C         139.3562  143.0209  162.9231 C.3     1  UNL1        0.0735
      4 N         139.2333  142.5886  164.3542 N.3     1  UNL1       -0.2710
      5 C         140.2744  142.9982  165.3534 C.3     1  UNL1        0.0735
      6 C         141.4382  143.8402  164.9216 C.3     1  UNL1        0.0331
      7 N         142.7249  145.1146  163.0587 N.3     1  UNL1       -0.2934
      8 H         142.4468  145.5807  162.1951 H       1  UNL1        0.1236
      9 C         144.0565  144.4756  162.7964 C.3     1  UNL1        0.1152
     10 O         143.0382  137.9172  158.7098 O.2     1  UNL1       -0.2707
     11 C         143.4850  138.6112  159.9623 C.2     1  UNL1        0.2718
     12 C         144.0390  137.8131  161.1051 C.3     1  UNL1        0.2898
     13 O         144.4858  138.5071  162.3576 O.3     1  UNL1       -0.4628
     14 C         144.3785  139.9992  162.4673 C.ar    1  UNL1        0.1708
     15 C         144.8252  140.6933  163.7198 C.ar    1  UNL1        0.0411
     16 C         144.7179  142.1853  163.8295 C.ar    1  UNL1        0.0193
     17 C         144.1638  142.9835  162.6867 C.ar    1  UNL1        0.0765
     18 N         143.7171  142.2895  161.4342 N.ar    1  UNL1       -0.2304
     19 C         143.8244  140.7973  161.3245 C.ar    1  UNL1        0.1682
     20 N         143.3776  140.1033  160.0720 N.am    1  UNL1       -0.2639
     21 H         143.0140  140.6272  159.3219 H       1  UNL1        0.1565
     22 C         138.0695  141.7466  164.7860 C.3     1  UNL1        0.0970
     23 C         138.3037  140.3780  165.3536 C.3     1  UNL1        0.1278
     24 N         139.3899  139.5090  164.7923 N.ar    1  UNL1       -0.2791
     25 C         139.2262  138.8842  163.4385 C.ar    1  UNL1        0.2621
     26 O         137.9762  139.1284  162.6460 O.2     1  UNL1       -0.2669
     27 C         140.3123  138.0152  162.8772 C.ar    1  UNL1        0.0609
     28 C         141.5623  137.7710  163.6698 C.ar    1  UNL1        0.0079
     29 C         141.7260  138.3958  165.0236 C.ar    1  UNL1        0.0346
     30 C         142.9759  138.1516  165.8161 C.ar    1  UNL1        0.0078
     31 C         143.1396  138.7764  167.1699 C.ar    1  UNL1        0.0583
     32 C         142.0534  139.6454  167.7312 C.ar    1  UNL1        0.2330
     33 N         140.8035  139.8896  166.9387 N.ar    1  UNL1       -0.1938
     34 C         140.6398  139.2648  165.5849 C.ar    1  UNL1        0.1492
     35 O         142.2172  140.2702  169.0850 O.3     1  UNL1       -0.4158
     36 C         141.2812  141.3553  169.5284 C.ar    1  UNL1        0.2700
     37 C         141.3582  142.8010  169.1359 C.ar    1  UNL1        0.1046
     38 C         140.2285  143.5244  169.8070 C.ar    1  UNL1        0.2172
     39 O         139.4533  142.5258  170.6143 O.2     1  UNL1       -0.3472
     40 N         140.1038  141.1852  170.4422 N.ar    1  UNL1       -0.0383
@<TRIPOS>BOND
     1    10    11    2
     2    11    12    1
     3    12    13    1
     4    13    14    1
     5    14    15   ar
     6    15    16   ar
     7    16    17   ar
     8    17     9    1
     9     9     7    1
    10     7     1    1
    11     1     2    1
    12     2     3    1
    13     3     4    1
    14     4    22    1
    15    22    23    1
    16    23    24    1
    17    24    25   ar
    18    25    26    2
    19    25    27   ar
    20    27    28   ar
    21    28    29   ar
    22    29    30   ar
    23    30    31   ar
    24    31    32   ar
    25    32    35    1
    26    35    36    1
    27    36    37   ar
    28    37    38   ar
    29    38    39   ar
    30    39    40   ar
    31    32    33   ar
    32    33    34   ar
    33     4     5    1
    34     5     6    1
    35    17    18   ar
    36    18    19   ar
    37    19    20    1
    38    20    11   am
    39    19    14   ar
    40     6     1    1
    41    34    24   ar
    42    34    29   ar
    43    40    36   ar
    44     7     8    1
    45    20    21    1
@<TRIPOS>MOLECULE
*****
 40 45 0 0 0
SMALL
GASTEIGER

@<TRIPOS>ATOM
      1 C         140.3725  143.5281  161.0217 C.3     1  UNL1        0.0570
      2 C         140.2985  144.3074  162.3012 C.3     1  UNL1        0.0331
      3 C         141.5445  144.5647  163.0958 C.3     1  UNL1        0.0735
      4 N         142.8645  144.0427  162.6108 N.3     1  UNL1       -0.2710
      5 C         142.9384  143.2633  161.3313 C.3     1  UNL1        0.0735
      6 C         141.6925  143.0060  160.5367 C.3     1  UNL1        0.0331
      7 N         139.1265  143.2708  160.2272 N.3     1  UNL1       -0.2934
      8 H         138.7727  144.1807  159.9316 H       1  UNL1        0.1236
      9 C         137.9752  142.5408  160.8530 C.3     1  UNL1        0.1152
     10 O         137.8114  138.6765  167.6199 O.2     1  UNL1       -0.2707
     11 C         138.1111  138.7109  166.1505 C.2     1  UNL1        0.2718
     12 C         138.6560  137.4917  165.4674 C.3     1  UNL1        0.2898
     13 O         138.9557  137.5262  163.9981 O.3     1  UNL1       -0.4628
     14 C         138.7106  138.7798  163.2118 C.ar    1  UNL1        0.1708
     15 C         139.0103  138.8143  161.7425 C.ar    1  UNL1        0.0411
     16 C         138.7652  140.0679  160.9562 C.ar    1  UNL1        0.0193
     17 C         138.2203  141.2872  161.6393 C.ar    1  UNL1        0.0765
     18 N         137.9206  141.2527  163.1086 N.ar    1  UNL1       -0.2304
     19 C         138.1657  139.9990  163.8949 C.ar    1  UNL1        0.1682
     20 N         137.8660  139.9646  165.3643 N.am    1  UNL1       -0.2639
     21 H         137.5084  140.7648  165.8126 H       1  UNL1        0.1565
     22 C         144.1104  144.2999  163.4054 C.3     1  UNL1        0.0970
     23 C         144.4152  143.4650  164.6136 C.3     1  UNL1        0.1278
     24 N         144.2239  141.9780  164.5654 N.ar    1  UNL1       -0.2791
     25 C         145.0682  141.1425  163.6494 C.ar    1  UNL1        0.2621
     26 O         146.1039  141.7940  162.7817 O.2     1  UNL1       -0.2669
     27 C         144.8769  139.6555  163.6012 C.ar    1  UNL1        0.0609
     28 C         143.8412  139.0040  164.4690 C.ar    1  UNL1        0.0079
     29 C         142.9969  139.8395  165.3849 C.ar    1  UNL1        0.0346
     30 C         141.9612  139.1881  166.2526 C.ar    1  UNL1        0.0078
     31 C         141.1168  140.0236  167.1686 C.ar    1  UNL1        0.0583
     32 C         141.3081  141.5105  167.2169 C.ar    1  UNL1        0.2330
     33 N         142.3438  142.1620  166.3491 N.ar    1  UNL1       -0.1938
     34 C         143.1882  141.3265  165.4331 C.ar    1  UNL1        0.1492
     35 O         140.4638  142.3460  168.1328 O.3     1  UNL1       -0.4158
     36 C         140.6328  142.2339  169.6191 C.ar    1  UNL1        0.2700
     37 C         141.8677  141.7706  170.3335 C.ar    1  UNL1        0.1046
     38 C         141.5948  141.8157  171.8078 C.ar    1  UNL1        0.2172
     39 O         140.1912  142.3070  172.0045 O.2     1  UNL1       -0.3472
     40 N         139.5967  142.5655  170.6518 N.ar    1  UNL1       -0.0383
@<TRIPOS>BOND
     1    10    11    2
     2    11    12    1
     3    12    13    1
     4    13    14    1
     5    14    15   ar
     6    15    16   ar
     7    16    17   ar
     8    17     9    1
     9     9     7    1
    10     7     1    1
    11     1     2    1
    12     2     3    1
    13     3     4    1
    14     4    22    1
    15    22    23    1
    16    23    24    1
    17    24    25   ar
    18    25    26    2
    19    25    27   ar
    20    27    28   ar
    21    28    29   ar
    22    29    30   ar
    23    30    31   ar
    24    31    32   ar
    25    32    35    1
    26    35    36    1
    27    36    37   ar
    28    37    38   ar
    29    38    39   ar
    30    39    40   ar
    31    32    33   ar
    32    33    34   ar
    33     4     5    1
    34     5     6    1
    35    17    18   ar
    36    18    19   ar
    37    19    20    1
    38    20    11   am
    39    19    14   ar
    40     6     1    1
    41    34    24   ar
    42    34    29   ar
    43    40    36   ar
    44     7     8    1
    45    20    21    1
@<TRIPOS>MOLECULE
*****
 40 45 0 0 0
SMALL
GASTEIGER

@<TRIPOS>ATOM
      1 C         143.1140  143.2764  164.3797 C.3     1  UNL1        0.0570
      2 C         142.1791  142.8492  165.4721 C.3     1  UNL1        0.0331
      3 C         140.7107  143.1328  165.3562 C.3     1  UNL1        0.0735
      4 N         140.1772  143.8436  164.1478 N.3     1  UNL1       -0.2710
      5 C         141.1122  144.2708  163.0553 C.3     1  UNL1        0.0735
      6 C         142.5806  143.9872  163.1713 C.3     1  UNL1        0.0331
      7 N         144.5824  142.9928  164.4956 N.3     1  UNL1       -0.2934
      8 H         145.0508  143.5783  163.8042 H       1  UNL1        0.1236
      9 C         145.0944  141.5966  164.2990 C.3     1  UNL1        0.1152
     10 O         143.4795  138.8408  157.1893 O.2     1  UNL1       -0.2707
     11 C         143.2723  138.8047  158.6745 C.2     1  UNL1        0.2718
     12 C         142.3194  137.8140  159.2750 C.3     1  UNL1        0.2898
     13 O         142.1122  137.7780  160.7601 O.3     1  UNL1       -0.4628
     14 C         142.8577  138.7326  161.6449 C.ar    1  UNL1        0.1708
     15 C         142.6504  138.6966  163.1300 C.ar    1  UNL1        0.0411
     16 C         143.3960  139.6512  164.0147 C.ar    1  UNL1        0.0193
     17 C         144.3489  140.6420  163.4143 C.ar    1  UNL1        0.0765
     18 N         144.5561  140.6780  161.9291 N.ar    1  UNL1       -0.2304
     19 C         143.8105  139.7233  161.0444 C.ar    1  UNL1        0.1682
     20 N         144.0178  139.7594  159.5592 N.am    1  UNL1       -0.2639
     21 H         144.6432  140.4096  159.1651 H       1  UNL1        0.1565
     22 C         138.7089  144.1272  164.0318 C.3     1  UNL1        0.0970
     23 C         137.7249  142.9952  164.0229 C.3     1  UNL1        0.1278
     24 N         138.0197  141.7513  163.2381 N.ar    1  UNL1       -0.2791
     25 C         138.0414  141.7978  161.7389 C.ar    1  UNL1        0.2621
     26 O         137.7682  143.0883  161.0246 O.2     1  UNL1       -0.2669
     27 C         138.3362  140.5540  160.9541 C.ar    1  UNL1        0.0609
     28 C         138.6093  139.2635  161.6684 C.ar    1  UNL1        0.0079
     29 C         138.5876  139.2170  163.1676 C.ar    1  UNL1        0.0346
     30 C         138.8608  137.9266  163.8819 C.ar    1  UNL1        0.0078
     31 C         138.8391  137.8800  165.3810 C.ar    1  UNL1        0.0583
     32 C         138.5443  139.1238  166.1658 C.ar    1  UNL1        0.2330
     33 N         138.2711  140.4143  165.4515 N.ar    1  UNL1       -0.1938
     34 C         138.2928  140.4609  163.9524 C.ar    1  UNL1        0.1492
     35 O         138.5226  139.0773  167.6649 O.3     1  UNL1       -0.4158
     36 C         139.4492  139.9524  168.4559 C.ar    1  UNL1        0.2700
     37 C         139.1572  140.5628  169.7947 C.ar    1  UNL1        0.1046
     38 C         140.3580  141.3583  170.2133 C.ar    1  UNL1        0.2172
     39 O         141.3921  141.2396  169.1332 O.2     1  UNL1       -0.3472
     40 N         140.8305  140.3706  168.0472 N.ar    1  UNL1       -0.0383
@<TRIPOS>BOND
     1    10    11    2
     2    11    12    1
     3    12    13    1
     4    13    14    1
     5    14    15   ar
     6    15    16   ar
     7    16    17   ar
     8    17     9    1
     9     9     7    1
    10     7     1    1
    11     1     2    1
    12     2     3    1
    13     3     4    1
    14     4    22    1
    15    22    23    1
    16    23    24    1
    17    24    25   ar
    18    25    26    2
    19    25    27   ar
    20    27    28   ar
    21    28    29   ar
    22    29    30   ar
    23    30    31   ar
    24    31    32   ar
    25    32    35    1
    26    35    36    1
    27    36    37   ar
    28    37    38   ar
    29    38    39   ar
    30    39    40   ar
    31    32    33   ar
    32    33    34   ar
    33     4     5    1
    34     5     6    1
    35    17    18   ar
    36    18    19   ar
    37    19    20    1
    38    20    11   am
    39    19    14   ar
    40     6     1    1
    41    34    24   ar
    42    34    29   ar
    43    40    36   ar
    44     7     8    1
    45    20    21    1
@<TRIPOS>MOLECULE
*****
 40 45 0 0 0
SMALL
GASTEIGER

@<TRIPOS>ATOM
      1 C         140.2529  143.6255  161.5808 C.3     1  UNL1        0.0570
      2 C         141.1734  142.8195  160.7130 C.3     1  UNL1        0.0331
      3 C         142.6386  142.7578  161.0282 C.3     1  UNL1        0.0735
      4 N         143.1833  143.5021  162.2112 N.3     1  UNL1       -0.2710
      5 C         142.2627  144.3082  163.0789 C.3     1  UNL1        0.0735
      6 C         140.7975  144.3699  162.7637 C.3     1  UNL1        0.0331
      7 N         138.7877  143.6872  161.2655 N.3     1  UNL1       -0.2934
      8 H         138.3248  144.0684  162.0907 H       1  UNL1        0.1236
      9 C         138.0474  142.4370  160.8925 C.3     1  UNL1        0.1152
     10 O         137.8725  138.7754  167.7709 O.2     1  UNL1       -0.2707
     11 C         138.1102  138.7476  166.2901 C.2     1  UNL1        0.2718
     12 C         138.5274  137.4714  165.6214 C.3     1  UNL1        0.2898
     13 O         138.7651  137.4435  164.1406 O.3     1  UNL1       -0.4628
     14 C         138.5857  138.6919  163.3286 C.ar    1  UNL1        0.1708
     15 C         138.8234  138.6640  161.8478 C.ar    1  UNL1        0.0411
     16 C         138.6440  139.9124  161.0358 C.ar    1  UNL1        0.0193
     17 C         138.2269  141.1887  161.7045 C.ar    1  UNL1        0.0765
     18 N         137.9891  141.2165  163.1853 N.ar    1  UNL1       -0.2304
     19 C         138.1686  139.9681  163.9973 C.ar    1  UNL1        0.1682
     20 N         137.9308  139.9959  165.4781 N.am    1  UNL1       -0.2639
     21 H         137.6571  140.8335  165.9171 H       1  UNL1        0.1565
     22 C         144.6485  143.4404  162.5264 C.3     1  UNL1        0.0970
     23 C         145.1591  142.4466  163.5271 C.3     1  UNL1        0.1278
     24 N         144.2837  142.0099  164.6643 N.ar    1  UNL1       -0.2791
     25 C         144.1525  142.8730  165.8841 C.ar    1  UNL1        0.2621
     26 O         144.8967  144.1728  165.9667 O.2     1  UNL1       -0.2669
     27 C         143.2772  142.4363  167.0212 C.ar    1  UNL1        0.0609
     28 C         142.5330  141.1365  166.9386 C.ar    1  UNL1        0.0079
     29 C         142.6642  140.2734  165.7188 C.ar    1  UNL1        0.0346
     30 C         141.9200  138.9737  165.6361 C.ar    1  UNL1        0.0078
     31 C         142.0512  138.1106  164.4163 C.ar    1  UNL1        0.0583
     32 C         142.9265  138.5473  163.2792 C.ar    1  UNL1        0.2330
     33 N         143.6707  139.8471  163.3618 N.ar    1  UNL1       -0.1938
     34 C         143.5396  140.7102  164.5816 C.ar    1  UNL1        0.1492
     35 O         143.0577  137.6842  162.0595 O.3     1  UNL1       -0.4158
     36 C         143.0646  138.3090  160.6958 C.ar    1  UNL1        0.2700
     37 C         141.8976  138.3891  159.7567 C.ar    1  UNL1        0.1046
     38 C         142.3514  139.0930  158.5123 C.ar    1  UNL1        0.2172
     39 O         143.7989  139.4480  158.6823 O.2     1  UNL1       -0.3472
     40 N         144.2396  138.9635  160.0317 N.ar    1  UNL1       -0.0383
@<TRIPOS>BOND
     1    10    11    2
     2    11    12    1
     3    12    13    1
     4    13    14    1
     5    14    15   ar
     6    15    16   ar
     7    16    17   ar
     8    17     9    1
     9     9     7    1
    10     7     1    1
    11     1     2    1
    12     2     3    1
    13     3     4    1
    14     4    22    1
    15    22    23    1
    16    23    24    1
    17    24    25   ar
    18    25    26    2
    19    25    27   ar
    20    27    28   ar
    21    28    29   ar
    22    29    30   ar
    23    30    31   ar
    24    31    32   ar
    25    32    35    1
    26    35    36    1
    27    36    37   ar
    28    37    38   ar
    29    38    39   ar
    30    39    40   ar
    31    32    33   ar
    32    33    34   ar
    33     4     5    1
    34     5     6    1
    35    17    18   ar
    36    18    19   ar
    37    19    20    1
    38    20    11   am
    39    19    14   ar
    40     6     1    1
    41    34    24   ar
    42    34    29   ar
    43    40    36   ar
    44     7     8    1
    45    20    21    1
