@<TRIPOS>MOLECULE
*****
 31 35 0 0 0
SMALL
GASTEIGER

@<TRIPOS>ATOM
      1 C         143.9008  143.0203  165.9969 C.3     1  UNL1        0.0285
      2 C         142.7784  142.2162  165.4107 C.3     1  UNL1        0.1321
      3 C         142.6143  142.1313  163.9222 C.3     1  UNL1        0.2279
      4 O         141.4919  141.3271  163.3360 O.3     1  UNL1       -0.4707
      5 C         140.5336  140.6079  164.2384 C.ar    1  UNL1        0.1675
      6 C         139.4112  139.8038  163.6522 C.ar    1  UNL1        0.0844
      7 C         138.4529  139.0845  164.5546 C.ar    1  UNL1        0.0280
      8 C         138.6170  139.1694  166.0432 C.ar    1  UNL1        0.0712
      9 C         139.7394  139.9736  166.6294 C.ar    1  UNL1        0.0288
     10 C         139.9035  140.0585  168.1180 C.ar    1  UNL1        0.0081
     11 C         141.0259  140.8626  168.7041 C.ar    1  UNL1        0.0702
     12 C         141.9842  141.5819  167.8017 C.ar    1  UNL1        0.2620
     13 O         143.1066  142.3860  168.3879 O.2     1  UNL1       -0.2669
     14 N         141.8201  141.4970  166.3131 N.ar    1  UNL1       -0.2909
     15 C         140.6977  140.6928  165.7269 C.ar    1  UNL1        0.0985
     16 N         139.2471  139.7188  162.1637 N.pl3   1  UNL1       -0.3050
     17 C         139.5208  138.5134  161.3138 C.3     1  UNL1        0.0910
     18 C         139.2234  138.8740  159.8885 C.3     1  UNL1        0.0244
     19 C         138.7659  140.3022  159.8574 C.3     1  UNL1        0.0344
     20 C         138.7806  140.8244  161.2636 C.3     1  UNL1        0.0921
     21 C         138.3643  141.0730  158.6348 C.3     1  UNL1        0.0406
     22 N         138.1069  139.9403  157.6857 N.3     1  UNL1       -0.3231
     23 C         138.0520  142.2370  157.7419 C.3     1  UNL1        0.0156
     24 C         138.4821  142.4733  159.1594 C.3     1  UNL1        0.0156
     25 H         138.2809  139.0537  158.1592 H       1  UNL1        0.1188
     26 H         138.7278  140.0234  156.8807 H       1  UNL1        0.1188
     27 C         141.1899  140.9475  170.1928 C.2     1  UNL1        0.0775
     28 O         140.1676  141.6689  171.0200 O.co2   1  UNL1       -0.5444
     29 O         142.3763  140.3110  170.8540 O.co2   1  UNL1       -0.5444
     30 C         137.6587  138.4502  166.9456 C.1     1  UNL1        0.1005
     31 N         136.7004  137.7309  167.8480 N.1     1  UNL1       -0.1908
@<TRIPOS>UNITY_ATOM_ATTR
28 1
charge -1
@<TRIPOS>BOND
     1     2     1    1
     2     2     3    1
     3     3     4    1
     4     4     5    1
     5     5     6   ar
     6     6    16    1
     7    16    17    1
     8    17    18    1
     9    18    19    1
    10    19    21    1
    11    21    22    1
    12    21    23    1
    13    23    24    1
    14    19    20    1
    15     6     7   ar
    16     7     8   ar
    17     8    30    1
    18    30    31    3
    19     8     9   ar
    20     9    10   ar
    21    10    11   ar
    22    11    27    1
    23    27    28   ar
    24    27    29   ar
    25    11    12   ar
    26    12    13    2
    27    12    14   ar
    28    14    15   ar
    29    14     2    1
    30    15     5   ar
    31    20    16    1
    32    15     9   ar
    33    24    21    1
    34    22    25    1
    35    22    26    1
@<TRIPOS>MOLECULE
*****
 31 35 0 0 0
SMALL
GASTEIGER

@<TRIPOS>ATOM
      1 C         143.8475  143.0551  165.8967 C.3     1  UNL1        0.0285
      2 C         142.7017  142.2688  165.3322 C.3     1  UNL1        0.1321
      3 C         142.4818  142.2233  163.8491 C.3     1  UNL1        0.2279
      4 O         141.3359  141.4369  163.2846 O.3     1  UNL1       -0.4707
      5 C         140.4100  140.6960  164.2031 C.ar    1  UNL1        0.1675
      6 C         139.2642  139.9096  163.6386 C.ar    1  UNL1        0.0844
      7 C         138.3383  139.1687  164.5571 C.ar    1  UNL1        0.0280
      8 C         138.5582  139.2142  166.0403 C.ar    1  UNL1        0.0712
      9 C         139.7040  140.0006  166.6048 C.ar    1  UNL1        0.0288
     10 C         139.9240  140.0461  168.0879 C.ar    1  UNL1        0.0081
     11 C         141.0698  140.8324  168.6524 C.ar    1  UNL1        0.0702
     12 C         141.9957  141.5733  167.7339 C.ar    1  UNL1        0.2620
     13 O         143.1415  142.3597  168.2984 O.2     1  UNL1       -0.2669
     14 N         141.7758  141.5279  166.2507 N.ar    1  UNL1       -0.2909
     15 C         140.6300  140.7415  165.6862 C.ar    1  UNL1        0.0985
     16 N         139.0443  139.8642  162.1555 N.pl3   1  UNL1       -0.3050
     17 C         137.8709  140.4408  161.4201 C.3     1  UNL1        0.0910
     18 C         138.0605  140.1671  159.9575 C.3     1  UNL1        0.0244
     19 C         139.3511  139.4213  159.7889 C.3     1  UNL1        0.0344
     20 C         139.9591  139.2341  161.1475 C.3     1  UNL1        0.0921
     21 C         139.9317  138.9461  158.4901 C.3     1  UNL1        0.0406
     22 N         138.7930  139.2601  157.5654 N.3     1  UNL1       -0.3231
     23 C         140.9076  138.3620  157.5123 C.3     1  UNL1        0.0156
     24 C         141.2719  138.4671  158.9636 C.3     1  UNL1        0.0156
     25 H         138.0282  139.6761  158.0969 H       1  UNL1        0.1188
     26 H         138.4698  138.4012  157.1201 H       1  UNL1        0.1188
     27 C         141.2897  140.8779  170.1356 C.2     1  UNL1        0.0775
     28 O         140.3415  141.6421  171.0113 O.co2   1  UNL1       -0.5444
     29 O         142.4578  140.1592  170.7429 O.co2   1  UNL1       -0.5444
     30 C         137.6323  138.4733  166.9588 C.1     1  UNL1        0.1005
     31 N         136.7063  137.7324  167.8773 N.1     1  UNL1       -0.1908
@<TRIPOS>UNITY_ATOM_ATTR
28 1
charge -1
@<TRIPOS>BOND
     1     2     1    1
     2     2     3    1
     3     3     4    1
     4     4     5    1
     5     5     6   ar
     6     6    16    1
     7    16    17    1
     8    17    18    1
     9    18    19    1
    10    19    21    1
    11    21    22    1
    12    21    23    1
    13    23    24    1
    14    19    20    1
    15     6     7   ar
    16     7     8   ar
    17     8    30    1
    18    30    31    3
    19     8     9   ar
    20     9    10   ar
    21    10    11   ar
    22    11    27    1
    23    27    28   ar
    24    27    29   ar
    25    11    12   ar
    26    12    13    2
    27    12    14   ar
    28    14    15   ar
    29    14     2    1
    30    15     5   ar
    31    20    16    1
    32    15     9   ar
    33    24    21    1
    34    22    25    1
    35    22    26    1
@<TRIPOS>MOLECULE
*****
 31 35 0 0 0
SMALL
GASTEIGER

@<TRIPOS>ATOM
      1 C         139.9337  137.6792  162.9729 C.3     1  UNL1        0.0285
      2 C         140.4331  139.0823  162.7946 C.3     1  UNL1        0.1321
      3 C         139.9396  139.9141  161.6481 C.3     1  UNL1        0.2279
      4 O         140.4391  141.3172  161.4698 O.3     1  UNL1       -0.4707
      5 C         141.4321  141.8885  162.4379 C.ar    1  UNL1        0.1675
      6 C         141.9315  143.2916  162.2596 C.ar    1  UNL1        0.0844
      7 C         142.9245  143.8630  163.2278 C.ar    1  UNL1        0.0280
      8 C         143.4181  143.0312  164.3744 C.ar    1  UNL1        0.0712
      9 C         142.9187  141.6281  164.5527 C.ar    1  UNL1        0.0288
     10 C         143.4122  140.7964  165.6992 C.ar    1  UNL1        0.0081
     11 C         142.9128  139.3933  165.8776 C.ar    1  UNL1        0.0702
     12 C         141.9198  138.8219  164.9094 C.ar    1  UNL1        0.2620
     13 O         141.4203  137.4188  165.0877 O.2     1  UNL1       -0.2669
     14 N         141.4261  139.6537  163.7628 N.ar    1  UNL1       -0.2909
     15 C         141.9256  141.0568  163.5845 C.ar    1  UNL1        0.0985
     16 N         141.4380  144.1234  161.1131 N.pl3   1  UNL1       -0.3050
     17 C         140.3475  145.1516  161.1749 C.3     1  UNL1        0.0910
     18 C         140.1838  145.7367  159.8035 C.3     1  UNL1        0.0244
     19 C         141.1730  145.0701  158.8940 C.3     1  UNL1        0.0344
     20 C         141.9482  144.0730  159.7034 C.3     1  UNL1        0.0921
     21 C         141.3552  145.3513  157.4319 C.3     1  UNL1        0.0406
     22 N         142.4968  146.3223  157.4936 N.3     1  UNL1       -0.3231
     23 C         141.1409  145.2952  155.9484 C.3     1  UNL1        0.0156
     24 C         140.2768  144.4779  156.8624 C.3     1  UNL1        0.0156
     25 H         142.7660  146.4692  158.4664 H       1  UNL1        0.1188
     26 H         142.2102  147.2106  157.0823 H       1  UNL1        0.1188
     27 C         143.4064  138.5615  167.0242 C.2     1  UNL1        0.0775
     28 O         142.9603  138.8715  168.4223 O.co2   1  UNL1       -0.5444
     29 O         144.3461  137.4197  166.7725 O.co2   1  UNL1       -0.5444
     30 C         144.4112  143.6026  165.3426 C.1     1  UNL1        0.1005
     31 N         145.4042  144.1740  166.3108 N.1     1  UNL1       -0.1908
@<TRIPOS>UNITY_ATOM_ATTR
28 1
charge -1
@<TRIPOS>BOND
     1     2     1    1
     2     2     3    1
     3     3     4    1
     4     4     5    1
     5     5     6   ar
     6     6    16    1
     7    16    17    1
     8    17    18    1
     9    18    19    1
    10    19    21    1
    11    21    22    1
    12    21    23    1
    13    23    24    1
    14    19    20    1
    15     6     7   ar
    16     7     8   ar
    17     8    30    1
    18    30    31    3
    19     8     9   ar
    20     9    10   ar
    21    10    11   ar
    22    11    27    1
    23    27    28   ar
    24    27    29   ar
    25    11    12   ar
    26    12    13    2
    27    12    14   ar
    28    14    15   ar
    29    14     2    1
    30    15     5   ar
    31    20    16    1
    32    15     9   ar
    33    24    21    1
    34    22    25    1
    35    22    26    1
@<TRIPOS>MOLECULE
*****
 31 35 0 0 0
SMALL
GASTEIGER

@<TRIPOS>ATOM
      1 C         137.7991  138.7490  167.2637 C.3     1  UNL1        0.0285
      2 C         138.7586  139.3239  166.2643 C.3     1  UNL1        0.1321
      3 C         138.6074  139.0006  164.8075 C.3     1  UNL1        0.2279
      4 O         139.5670  139.5754  163.8081 O.3     1  UNL1       -0.4707
      5 C         140.6778  140.4736  164.2656 C.ar    1  UNL1        0.1675
      6 C         141.6373  141.0485  163.2662 C.ar    1  UNL1        0.0844
      7 C         142.7482  141.9466  163.7237 C.ar    1  UNL1        0.0280
      8 C         142.8995  142.2699  165.1806 C.ar    1  UNL1        0.0712
      9 C         141.9399  141.6951  166.1800 C.ar    1  UNL1        0.0288
     10 C         142.0912  142.0184  167.6369 C.ar    1  UNL1        0.0081
     11 C         141.1316  141.4435  168.6363 C.ar    1  UNL1        0.0702
     12 C         140.0208  140.5454  168.1788 C.ar    1  UNL1        0.2620
     13 O         139.0612  139.9705  169.1782 O.2     1  UNL1       -0.2669
     14 N         139.8695  140.2220  166.7218 N.ar    1  UNL1       -0.2909
     15 C         140.8290  140.7969  165.7224 C.ar    1  UNL1        0.0985
     16 N         141.4861  140.7252  161.8093 N.pl3   1  UNL1       -0.3050
     17 C         140.5137  141.3621  160.8611 C.3     1  UNL1        0.0910
     18 C         140.7073  140.7387  159.5105 C.3     1  UNL1        0.0244
     19 C         141.7993  139.7166  159.6239 C.3     1  UNL1        0.0344
     20 C         142.2806  139.7082  161.0447 C.3     1  UNL1        0.0921
     21 C         142.3187  138.8543  158.5120 C.3     1  UNL1        0.0406
     22 N         143.7881  139.1311  158.6323 N.3     1  UNL1       -0.3231
     23 C         142.3280  137.8959  157.3582 C.3     1  UNL1        0.0156
     24 C         141.0299  138.2780  158.0054 C.3     1  UNL1        0.0156
     25 H         143.9490  139.7866  159.3971 H       1  UNL1        0.1188
     26 H         144.1305  139.5352  157.7606 H       1  UNL1        0.1188
     27 C         141.2829  141.7669  170.0932 C.2     1  UNL1        0.0775
     28 O         141.8995  140.7649  171.0237 O.co2   1  UNL1       -0.5444
     29 O         140.8175  143.0921  170.6196 O.co2   1  UNL1       -0.5444
     30 C         144.0103  143.1681  165.6381 C.1     1  UNL1        0.1005
     31 N         145.1211  144.0663  166.0957 N.1     1  UNL1       -0.1908
@<TRIPOS>UNITY_ATOM_ATTR
28 1
charge -1
@<TRIPOS>BOND
     1     2     1    1
     2     2     3    1
     3     3     4    1
     4     4     5    1
     5     5     6   ar
     6     6    16    1
     7    16    17    1
     8    17    18    1
     9    18    19    1
    10    19    21    1
    11    21    22    1
    12    21    23    1
    13    23    24    1
    14    19    20    1
    15     6     7   ar
    16     7     8   ar
    17     8    30    1
    18    30    31    3
    19     8     9   ar
    20     9    10   ar
    21    10    11   ar
    22    11    27    1
    23    27    28   ar
    24    27    29   ar
    25    11    12   ar
    26    12    13    2
    27    12    14   ar
    28    14    15   ar
    29    14     2    1
    30    15     5   ar
    31    20    16    1
    32    15     9   ar
    33    24    21    1
    34    22    25    1
    35    22    26    1
@<TRIPOS>MOLECULE
*****
 31 35 0 0 0
SMALL
GASTEIGER

@<TRIPOS>ATOM
      1 C         140.2836  145.8951  161.9734 C.3     1  UNL1        0.0285
      2 C         140.4484  144.5562  162.6292 C.3     1  UNL1        0.1321
      3 C         139.7828  144.2781  163.9444 C.3     1  UNL1        0.2279
      4 O         139.9477  142.9392  164.6001 O.3     1  UNL1       -0.4707
      5 C         140.7782  141.8783  163.9408 C.ar    1  UNL1        0.1675
      6 C         140.9430  140.5394  164.5966 C.ar    1  UNL1        0.0844
      7 C         141.7735  139.4785  163.9372 C.ar    1  UNL1        0.0280
      8 C         142.4391  139.7565  162.6220 C.ar    1  UNL1        0.0712
      9 C         142.2742  141.0954  161.9662 C.ar    1  UNL1        0.0288
     10 C         142.9398  141.3735  160.6511 C.ar    1  UNL1        0.0081
     11 C         142.7749  142.7124  159.9953 C.ar    1  UNL1        0.0702
     12 C         141.9445  143.7733  160.6546 C.ar    1  UNL1        0.2620
     13 O         141.7796  145.1122  159.9989 O.2     1  UNL1       -0.2669
     14 N         141.2789  143.4953  161.9699 N.ar    1  UNL1       -0.2909
     15 C         141.4437  142.1563  162.6256 C.ar    1  UNL1        0.0985
     16 N         140.2774  140.2613  165.9117 N.pl3   1  UNL1       -0.3050
     17 C         138.9516  139.5864  166.1037 C.3     1  UNL1        0.0910
     18 C         138.6755  139.5173  167.5764 C.3     1  UNL1        0.0244
     19 C         139.8307  140.1495  168.2948 C.3     1  UNL1        0.0344
     20 C         140.8208  140.6093  167.2659 C.3     1  UNL1        0.0921
     21 C         139.9712  140.2961  169.7809 C.3     1  UNL1        0.0406
     22 N         138.5770  139.9468  170.2101 N.3     1  UNL1       -0.3231
     23 C         140.5958  140.5640  171.1180 C.3     1  UNL1        0.0156
     24 C         141.4142  140.6963  169.8679 C.3     1  UNL1        0.0156
     25 H         138.0119  139.7327  169.3883 H       1  UNL1        0.1188
     26 H         138.1667  140.7366  170.7085 H       1  UNL1        0.1188
     27 C         143.4406  142.9904  158.6801 C.2     1  UNL1        0.0775
     28 O         142.6162  143.3867  157.4912 O.co2   1  UNL1       -0.5444
     29 O         144.9306  142.8722  158.5538 O.co2   1  UNL1       -0.5444
     30 C         143.2696  138.6956  161.9626 C.1     1  UNL1        0.1005
     31 N         144.1001  137.6346  161.3033 N.1     1  UNL1       -0.1908
@<TRIPOS>UNITY_ATOM_ATTR
28 1
charge -1
@<TRIPOS>BOND
     1     2     1    1
     2     2     3    1
     3     3     4    1
     4     4     5    1
     5     5     6   ar
     6     6    16    1
     7    16    17    1
     8    17    18    1
     9    18    19    1
    10    19    21    1
    11    21    22    1
    12    21    23    1
    13    23    24    1
    14    19    20    1
    15     6     7   ar
    16     7     8   ar
    17     8    30    1
    18    30    31    3
    19     8     9   ar
    20     9    10   ar
    21    10    11   ar
    22    11    27    1
    23    27    28   ar
    24    27    29   ar
    25    11    12   ar
    26    12    13    2
    27    12    14   ar
    28    14    15   ar
    29    14     2    1
    30    15     5   ar
    31    20    16    1
    32    15     9   ar
    33    24    21    1
    34    22    25    1
    35    22    26    1
@<TRIPOS>MOLECULE
*****
 31 35 0 0 0
SMALL
GASTEIGER

@<TRIPOS>ATOM
      1 C         139.4975  144.1136  165.7975 C.3     1  UNL1        0.0285
      2 C         140.3273  143.0332  165.1697 C.3     1  UNL1        0.1321
      3 C         140.4443  142.9495  163.6766 C.3     1  UNL1        0.2279
      4 O         141.2742  141.8692  163.0487 O.3     1  UNL1       -0.4707
      5 C         141.9870  140.8725  163.9139 C.ar    1  UNL1        0.1675
      6 C         142.8168  139.7922  163.2860 C.ar    1  UNL1        0.0844
      7 C         143.5296  138.7955  164.1512 C.ar    1  UNL1        0.0280
      8 C         143.4126  138.8792  165.6444 C.ar    1  UNL1        0.0712
      9 C         142.5827  139.9595  166.2722 C.ar    1  UNL1        0.0288
     10 C         142.4657  140.0433  167.7653 C.ar    1  UNL1        0.0081
     11 C         141.6358  141.1236  168.3931 C.ar    1  UNL1        0.0702
     12 C         140.9231  142.1202  167.5280 C.ar    1  UNL1        0.2620
     13 O         140.0932  143.2006  168.1558 O.2     1  UNL1       -0.2669
     14 N         141.0401  142.0366  166.0348 N.ar    1  UNL1       -0.2909
     15 C         141.8699  140.9562  165.4070 C.ar    1  UNL1        0.0985
     16 N         142.9338  139.7085  161.7930 N.pl3   1  UNL1       -0.3050
     17 C         143.9077  140.4673  160.9410 C.3     1  UNL1        0.0910
     18 C         143.6734  140.0791  159.5112 C.3     1  UNL1        0.0244
     19 C         142.5546  139.0803  159.4794 C.3     1  UNL1        0.0344
     20 C         142.0976  138.8512  160.8897 C.3     1  UNL1        0.0921
     21 C         141.9918  138.4255  158.2529 C.3     1  UNL1        0.0406
     22 N         143.2531  138.2125  157.4693 N.3     1  UNL1       -0.3231
     23 C         140.9911  137.8447  157.2984 C.3     1  UNL1        0.0156
     24 C         140.5352  138.4111  158.6104 C.3     1  UNL1        0.0156
     25 H         144.0479  138.5664  158.0016 H       1  UNL1        0.1188
     26 H         143.1898  138.7104  156.5813 H       1  UNL1        0.1188
     27 C         141.5188  141.2073  169.8863 C.2     1  UNL1        0.0775
     28 O         140.6482  140.2352  170.6260 O.co2   1  UNL1       -0.5444
     29 O         142.2724  142.2630  170.6396 O.co2   1  UNL1       -0.5444
     30 C         144.1254  137.8826  166.5095 C.1     1  UNL1        0.1005
     31 N         144.8381  136.8858  167.3748 N.1     1  UNL1       -0.1908
@<TRIPOS>UNITY_ATOM_ATTR
28 1
charge -1
@<TRIPOS>BOND
     1     2     1    1
     2     2     3    1
     3     3     4    1
     4     4     5    1
     5     5     6   ar
     6     6    16    1
     7    16    17    1
     8    17    18    1
     9    18    19    1
    10    19    21    1
    11    21    22    1
    12    21    23    1
    13    23    24    1
    14    19    20    1
    15     6     7   ar
    16     7     8   ar
    17     8    30    1
    18    30    31    3
    19     8     9   ar
    20     9    10   ar
    21    10    11   ar
    22    11    27    1
    23    27    28   ar
    24    27    29   ar
    25    11    12   ar
    26    12    13    2
    27    12    14   ar
    28    14    15   ar
    29    14     2    1
    30    15     5   ar
    31    20    16    1
    32    15     9   ar
    33    24    21    1
    34    22    25    1
    35    22    26    1
@<TRIPOS>MOLECULE
*****
 31 35 0 0 0
SMALL
GASTEIGER

@<TRIPOS>ATOM
      1 C         143.3673  137.7369  160.7506 C.3     1  UNL1        0.0285
      2 C         142.5061  138.5563  161.6655 C.3     1  UNL1        0.1321
      3 C         142.0833  138.0019  162.9936 C.3     1  UNL1        0.2279
      4 O         141.2222  138.8213  163.9085 O.3     1  UNL1       -0.4707
      5 C         140.7838  140.1950  163.4953 C.ar    1  UNL1        0.1675
      6 C         139.9227  141.0143  164.4103 C.ar    1  UNL1        0.0844
      7 C         139.4843  142.3880  163.9971 C.ar    1  UNL1        0.0280
      8 C         139.9071  142.9424  162.6689 C.ar    1  UNL1        0.0712
      9 C         140.7683  142.1231  161.7540 C.ar    1  UNL1        0.0288
     10 C         141.1911  142.6774  160.4259 C.ar    1  UNL1        0.0081
     11 C         142.0522  141.8580  159.5110 C.ar    1  UNL1        0.0702
     12 C         142.4906  140.4844  159.9242 C.ar    1  UNL1        0.2620
     13 O         143.3517  139.6650  159.0092 O.2     1  UNL1       -0.2669
     14 N         142.0678  139.9299  161.2523 N.ar    1  UNL1       -0.2909
     15 C         141.2066  140.7493  162.1672 C.ar    1  UNL1        0.0985
     16 N         139.4999  140.4600  165.7384 N.pl3   1  UNL1       -0.3050
     17 C         138.3945  139.4728  165.9703 C.3     1  UNL1        0.0910
     18 C         138.3196  139.1982  167.4430 C.3     1  UNL1        0.0244
     19 C         139.3788  140.0156  168.1214 C.3     1  UNL1        0.0344
     20 C         140.1082  140.7954  167.0678 C.3     1  UNL1        0.0921
     21 C         139.6592  140.0476  169.5946 C.3     1  UNL1        0.0406
     22 N         138.2575  140.0116  170.1274 N.3     1  UNL1       -0.3231
     23 C         140.4264  140.0920  170.8827 C.3     1  UNL1        0.0156
     24 C         141.1583  140.0946  169.5734 C.3     1  UNL1        0.0156
     25 H         137.5987  139.9786  169.3494 H       1  UNL1        0.1188
     26 H         138.0840  140.8482  170.6846 H       1  UNL1        0.1188
     27 C         142.4750  142.4124  158.1828 C.2     1  UNL1        0.0775
     28 O         141.6320  142.1697  156.9661 O.co2   1  UNL1       -0.5444
     29 O         143.7408  143.2096  158.0714 O.co2   1  UNL1       -0.5444
     30 C         139.4688  144.3161  162.2557 C.1     1  UNL1        0.1005
     31 N         139.0304  145.6899  161.8425 N.1     1  UNL1       -0.1908
@<TRIPOS>UNITY_ATOM_ATTR
28 1
charge -1
@<TRIPOS>BOND
     1     2     1    1
     2     2     3    1
     3     3     4    1
     4     4     5    1
     5     5     6   ar
     6     6    16    1
     7    16    17    1
     8    17    18    1
     9    18    19    1
    10    19    21    1
    11    21    22    1
    12    21    23    1
    13    23    24    1
    14    19    20    1
    15     6     7   ar
    16     7     8   ar
    17     8    30    1
    18    30    31    3
    19     8     9   ar
    20     9    10   ar
    21    10    11   ar
    22    11    27    1
    23    27    28   ar
    24    27    29   ar
    25    11    12   ar
    26    12    13    2
    27    12    14   ar
    28    14    15   ar
    29    14     2    1
    30    15     5   ar
    31    20    16    1
    32    15     9   ar
    33    24    21    1
    34    22    25    1
    35    22    26    1
@<TRIPOS>MOLECULE
*****
 31 35 0 0 0
SMALL
GASTEIGER

@<TRIPOS>ATOM
      1 C         138.9280  138.1065  165.1661 C.3     1  UNL1        0.0285
      2 C         139.4549  138.5435  163.8314 C.3     1  UNL1        0.1321
      3 C         139.7011  137.5297  162.7537 C.3     1  UNL1        0.2279
      4 O         140.2280  137.9667  161.4191 O.3     1  UNL1       -0.4707
      5 C         140.5087  139.4176  161.1620 C.ar    1  UNL1        0.1675
      6 C         141.0356  139.8546  159.8274 C.ar    1  UNL1        0.0844
      7 C         141.3163  141.3055  159.5704 C.ar    1  UNL1        0.0280
      8 C         141.0701  142.3194  160.6481 C.ar    1  UNL1        0.0712
      9 C         140.5432  141.8824  161.9828 C.ar    1  UNL1        0.0288
     10 C         140.2970  142.8962  163.0604 C.ar    1  UNL1        0.0081
     11 C         139.7701  142.4592  164.3951 C.ar    1  UNL1        0.0702
     12 C         139.4894  141.0083  164.6521 C.ar    1  UNL1        0.2620
     13 O         138.9625  140.5713  165.9868 O.2     1  UNL1       -0.2669
     14 N         139.7356  139.9944  163.5744 N.ar    1  UNL1       -0.2909
     15 C         140.2625  140.4314  162.2397 C.ar    1  UNL1        0.0985
     16 N         141.2818  138.8407  158.7497 N.pl3   1  UNL1       -0.3050
     17 C         142.5360  138.0393  158.5630 C.3     1  UNL1        0.0910
     18 C         142.3465  137.1535  157.3674 C.3     1  UNL1        0.0244
     19 C         140.9751  137.4075  156.8151 C.3     1  UNL1        0.0344
     20 C         140.3171  138.4503  157.6694 C.3     1  UNL1        0.0921
     21 C         140.3683  136.7365  155.6186 C.3     1  UNL1        0.0406
     22 N         138.9279  136.7116  156.0366 N.3     1  UNL1       -0.3231
     23 C         140.2616  136.0743  154.2770 C.3     1  UNL1        0.0156
     24 C         141.5979  136.5285  154.7851 C.3     1  UNL1        0.0156
     25 H         138.8336  137.1399  156.9575 H       1  UNL1        0.1188
     26 H         138.6019  135.7459  156.0758 H       1  UNL1        0.1188
     27 C         139.5239  143.4732  165.4728 C.2     1  UNL1        0.0775
     28 O         140.1789  143.3171  166.8132 O.co2   1  UNL1       -0.5444
     29 O         138.6227  144.6431  165.2101 O.co2   1  UNL1       -0.5444
     30 C         141.3508  143.7703  160.3911 C.1     1  UNL1        0.1005
     31 N         141.6316  145.2213  160.1340 N.1     1  UNL1       -0.1908
@<TRIPOS>UNITY_ATOM_ATTR
28 1
charge -1
@<TRIPOS>BOND
     1     2     1    1
     2     2     3    1
     3     3     4    1
     4     4     5    1
     5     5     6   ar
     6     6    16    1
     7    16    17    1
     8    17    18    1
     9    18    19    1
    10    19    21    1
    11    21    22    1
    12    21    23    1
    13    23    24    1
    14    19    20    1
    15     6     7   ar
    16     7     8   ar
    17     8    30    1
    18    30    31    3
    19     8     9   ar
    20     9    10   ar
    21    10    11   ar
    22    11    27    1
    23    27    28   ar
    24    27    29   ar
    25    11    12   ar
    26    12    13    2
    27    12    14   ar
    28    14    15   ar
    29    14     2    1
    30    15     5   ar
    31    20    16    1
    32    15     9   ar
    33    24    21    1
    34    22    25    1
    35    22    26    1
@<TRIPOS>MOLECULE
*****
 31 35 0 0 0
SMALL
GASTEIGER

@<TRIPOS>ATOM
      1 C         138.3994  144.7727  165.4573 C.3     1  UNL1        0.0285
      2 C         138.8046  144.0754  164.1925 C.3     1  UNL1        0.1321
      3 C         138.1341  144.4231  162.8965 C.3     1  UNL1        0.2279
      4 O         138.5393  143.7258  161.6317 O.3     1  UNL1       -0.4707
      5 C         139.6150  142.6810  161.6629 C.ar    1  UNL1        0.1675
      6 C         140.0202  141.9837  160.3981 C.ar    1  UNL1        0.0844
      7 C         141.0959  140.9389  160.4293 C.ar    1  UNL1        0.0280
      8 C         141.7665  140.5912  161.7253 C.ar    1  UNL1        0.0712
      9 C         141.3613  141.2884  162.9901 C.ar    1  UNL1        0.0288
     10 C         142.0318  140.9407  164.2860 C.ar    1  UNL1        0.0081
     11 C         141.6266  141.6380  165.5508 C.ar    1  UNL1        0.0702
     12 C         140.5509  142.6828  165.5196 C.ar    1  UNL1        0.2620
     13 O         140.1457  143.3801  166.7844 O.2     1  UNL1       -0.2669
     14 N         139.8803  143.0305  164.2236 N.ar    1  UNL1       -0.2909
     15 C         140.2855  142.3333  162.9588 C.ar    1  UNL1        0.0985
     16 N         139.3497  142.3314  159.1022 N.pl3   1  UNL1       -0.3050
     17 C         139.7438  143.4437  158.1761 C.3     1  UNL1        0.0910
     18 C         138.8051  143.4276  157.0063 C.3     1  UNL1        0.0244
     19 C         137.8307  142.3053  157.2093 C.3     1  UNL1        0.0344
     20 C         138.1673  141.6278  158.5047 C.3     1  UNL1        0.0921
     21 C         136.7155  141.9269  156.2802 C.3     1  UNL1        0.0406
     22 N         136.3717  140.5719  156.8242 N.3     1  UNL1       -0.3231
     23 C         135.7198  142.0191  155.1623 C.3     1  UNL1        0.0156
     24 C         136.6720  143.1505  155.4137 C.3     1  UNL1        0.0156
     25 H         136.9809  140.3580  157.6138 H       1  UNL1        0.1188
     26 H         136.5007  139.8702  156.0953 H       1  UNL1        0.1188
     27 C         142.2972  141.2903  166.8468 C.2     1  UNL1        0.0775
     28 O         142.0737  139.9440  167.4693 O.co2   1  UNL1       -0.5444
     29 O         143.1912  142.2889  167.5202 O.co2   1  UNL1       -0.5444
     30 C         142.8422  139.5463  161.7564 C.1     1  UNL1        0.1005
     31 N         143.9180  138.5014  161.7875 N.1     1  UNL1       -0.1908
@<TRIPOS>UNITY_ATOM_ATTR
28 1
charge -1
@<TRIPOS>BOND
     1     2     1    1
     2     2     3    1
     3     3     4    1
     4     4     5    1
     5     5     6   ar
     6     6    16    1
     7    16    17    1
     8    17    18    1
     9    18    19    1
    10    19    21    1
    11    21    22    1
    12    21    23    1
    13    23    24    1
    14    19    20    1
    15     6     7   ar
    16     7     8   ar
    17     8    30    1
    18    30    31    3
    19     8     9   ar
    20     9    10   ar
    21    10    11   ar
    22    11    27    1
    23    27    28   ar
    24    27    29   ar
    25    11    12   ar
    26    12    13    2
    27    12    14   ar
    28    14    15   ar
    29    14     2    1
    30    15     5   ar
    31    20    16    1
    32    15     9   ar
    33    24    21    1
    34    22    25    1
    35    22    26    1
