@<TRIPOS>MOLECULE
*****
 38 42 0 0 0
SMALL
GASTEIGER

@<TRIPOS>ATOM
      1 C         139.5522  139.8259  165.4997 C.3     1  UNL1        0.2321
      2 N         138.5376  138.7338  165.6670 N.2     1  UNL1       -0.0614
      3 C         138.1020  138.7219  167.1023 C.2     1  UNL1        0.3157
      4 N         137.0974  137.7890  167.7110 N.pl3   1  UNL1       -0.2464
      5 C         138.8473  139.8065  167.8220 C.ar    1  UNL1        0.1094
      6 C         138.8256  140.2611  169.2513 C.ar    1  UNL1        0.1470
      7 F         137.9293  139.5787  170.2418 F       1  UNL1       -0.2039
      8 C         139.7002  141.3979  169.6901 C.ar    1  UNL1        0.0299
      9 C         140.5965  142.0802  168.6996 C.ar    1  UNL1        0.0021
     10 C         140.6182  141.6257  167.2703 C.ar    1  UNL1        0.0008
     11 C         139.7436  140.4889  166.8315 C.ar    1  UNL1        0.0390
     12 H         136.6589  137.1060  167.1538 H       1  UNL1        0.2884
     13 H         136.8765  137.8597  168.6678 H       1  UNL1        0.2884
     14 C         139.5739  139.3713  164.0703 C.ar    1  UNL1        0.0468
     15 C         138.3592  139.5489  163.2084 C.ar    1  UNL1        0.0023
     16 C         138.3808  139.0943  161.7791 C.ar    1  UNL1        0.0342
     17 C         137.1661  139.2719  160.9171 C.3     1  UNL1        0.0360
     18 C         139.6171  138.4622  161.2118 C.ar    1  UNL1        0.2568
     19 O         139.6388  138.0076  159.7824 O.2     1  UNL1       -0.2673
     20 N         140.8318  138.2846  162.0737 N.ar    1  UNL1       -0.2946
     21 C         140.8102  138.7392  163.5030 C.ar    1  UNL1        0.0786
     22 C         142.0682  137.6525  161.5063 C.3     1  UNL1        0.1091
     23 C         143.4210  138.0876  161.9866 C.3     1  UNL1        0.0266
     24 C         141.1898  142.9187  163.6280 C.ar    1  UNL1        0.0014
     25 C         142.6096  142.8170  164.1012 C.ar    1  UNL1        0.0000
     26 C         143.0102  141.7183  165.0406 C.ar    1  UNL1       -0.0002
     27 C         141.9911  140.7213  165.5067 C.ar    1  UNL1        0.0004
     28 C         140.5713  140.8229  165.0335 C.ar    1  UNL1        0.0297
     29 C         140.1706  141.9216  164.0942 C.ar    1  UNL1        0.0004
     30 C         140.8801  145.1074  160.3321 C.ar    1  UNL1        0.0608
     31 C         139.9877  146.2145  160.8099 C.ar    1  UNL1        0.1071
     32 N         139.4960  146.2229  162.2269 N.ar    1  UNL1       -0.2417
     33 C         139.8967  145.1243  163.1664 C.ar    1  UNL1        0.0989
     34 C         140.7891  144.0173  162.6887 C.ar    1  UNL1        0.0198
     35 C         141.2808  144.0089  161.2715 C.ar    1  UNL1        0.0113
     36 C         142.3553  145.0823  156.0809 C.3     1  UNL1        0.0903
     37 C         141.8636  145.0907  157.4979 C.1     1  UNL1       -0.0853
     38 C         141.3718  145.0991  158.9150 C.1     1  UNL1       -0.0628
@<TRIPOS>BOND
     1    36    37    1
     2    37    38    3
     3    38    30    1
     4    30    31   ar
     5    31    32   ar
     6    32    33   ar
     7    33    34   ar
     8    34    24    1
     9    24    25   ar
    10    25    26   ar
    11    26    27   ar
    12    27    28   ar
    13     1    28    1
    14     1    14    1
    15    14    15   ar
    16    15    16   ar
    17    16    17    1
    18    16    18   ar
    19    18    19    2
    20    18    20   ar
    21    20    22    1
    22    22    23    1
    23    20    21   ar
    24     1     2    1
    25     2     3    2
    26     3     4    1
    27     3     5    1
    28     5     6   ar
    29     6     7    1
    30     6     8   ar
    31     8     9   ar
    32     9    10   ar
    33    10    11   ar
    34    28    29   ar
    35    34    35   ar
    36    35    30   ar
    37    29    24   ar
    38    11     1    1
    39    21    14   ar
    40    11     5   ar
    41     4    12    1
    42     4    13    1
@<TRIPOS>MOLECULE
*****
 38 42 0 0 0
SMALL
GASTEIGER

@<TRIPOS>ATOM
      1 C         139.6070  139.8443  165.5911 C.3     1  UNL1        0.2321
      2 N         138.6137  138.7320  165.7526 N.2     1  UNL1       -0.0614
      3 C         138.1453  138.7323  167.1776 C.2     1  UNL1        0.3157
      4 N         137.1481  137.7862  167.7781 N.pl3   1  UNL1       -0.2464
      5 C         138.8490  139.8448  167.8967 C.ar    1  UNL1        0.1094
      6 C         138.7839  140.3208  169.3177 C.ar    1  UNL1        0.1470
      7 F         137.8805  139.6335  170.2982 F       1  UNL1       -0.2039
      8 C         139.6222  141.4840  169.7581 C.ar    1  UNL1        0.0299
      9 C         140.5256  142.1713  168.7775 C.ar    1  UNL1        0.0021
     10 C         140.5907  141.6953  167.3565 C.ar    1  UNL1        0.0008
     11 C         139.7524  140.5321  166.9161 C.ar    1  UNL1        0.0390
     12 H         136.7382  137.0848  167.2220 H       1  UNL1        0.2884
     13 H         136.9036  137.8666  168.7283 H       1  UNL1        0.2884
     14 C         139.6721  139.3683  164.1700 C.ar    1  UNL1        0.0468
     15 C         140.9286  138.7377  163.6471 C.ar    1  UNL1        0.0023
     16 C         140.9937  138.2617  162.2262 C.ar    1  UNL1        0.0342
     17 C         142.2503  137.6311  161.7033 C.3     1  UNL1        0.0360
     18 C         139.8023  138.4162  161.3282 C.ar    1  UNL1        0.2568
     19 O         139.8673  137.9402  159.9071 O.2     1  UNL1       -0.2673
     20 N         138.5457  139.0468  161.8511 N.ar    1  UNL1       -0.2946
     21 C         138.4806  139.5228  163.2720 C.ar    1  UNL1        0.0786
     22 C         137.3542  139.2014  160.9529 C.3     1  UNL1        0.1091
     23 C         137.3499  140.2575  159.8878 C.3     1  UNL1        0.0266
     24 C         141.2094  142.9640  163.7336 C.ar    1  UNL1        0.0014
     25 C         142.6277  142.8828  164.2151 C.ar    1  UNL1        0.0000
     26 C         143.0391  141.7887  165.1552 C.ar    1  UNL1       -0.0002
     27 C         142.0322  140.7759  165.6138 C.ar    1  UNL1        0.0004
     28 C         140.6139  140.8571  165.1324 C.ar    1  UNL1        0.0297
     29 C         140.2024  141.9512  164.1923 C.ar    1  UNL1        0.0004
     30 C         140.8673  145.1401  160.4325 C.ar    1  UNL1        0.0608
     31 C         139.9749  146.2459  160.9132 C.ar    1  UNL1        0.1071
     32 N         139.4941  146.2578  162.3340 N.ar    1  UNL1       -0.2417
     33 C         139.9056  145.1638  163.2741 C.ar    1  UNL1        0.0989
     34 C         140.7978  144.0581  162.7935 C.ar    1  UNL1        0.0198
     35 C         141.2787  144.0462  161.3726 C.ar    1  UNL1        0.0113
     36 C         142.3097  145.1045  156.1701 C.3     1  UNL1        0.0903
     37 C         141.8288  145.1163  157.5909 C.1     1  UNL1       -0.0853
     38 C         141.3481  145.1282  159.0117 C.1     1  UNL1       -0.0628
@<TRIPOS>BOND
     1    36    37    1
     2    37    38    3
     3    38    30    1
     4    30    31   ar
     5    31    32   ar
     6    32    33   ar
     7    33    34   ar
     8    34    24    1
     9    24    25   ar
    10    25    26   ar
    11    26    27   ar
    12    27    28   ar
    13     1    28    1
    14     1    14    1
    15    14    15   ar
    16    15    16   ar
    17    16    17    1
    18    16    18   ar
    19    18    19    2
    20    18    20   ar
    21    20    22    1
    22    22    23    1
    23    20    21   ar
    24     1     2    1
    25     2     3    2
    26     3     4    1
    27     3     5    1
    28     5     6   ar
    29     6     7    1
    30     6     8   ar
    31     8     9   ar
    32     9    10   ar
    33    10    11   ar
    34    28    29   ar
    35    34    35   ar
    36    35    30   ar
    37    29    24   ar
    38    11     1    1
    39    21    14   ar
    40    11     5   ar
    41     4    12    1
    42     4    13    1
@<TRIPOS>MOLECULE
*****
 38 42 0 0 0
SMALL
GASTEIGER

@<TRIPOS>ATOM
      1 C         140.8234  140.8074  165.4518 C.3     1  UNL1        0.2321
      2 N         141.1425  141.7830  166.5457 N.2     1  UNL1       -0.0614
      3 C         140.2851  141.4480  167.7300 C.2     1  UNL1        0.3157
      4 N         140.2779  142.1690  169.0454 N.pl3   1  UNL1       -0.2464
      5 C         139.4362  140.2654  167.3682 C.ar    1  UNL1        0.1094
      6 C         138.4033  139.4980  168.1389 C.ar    1  UNL1        0.1470
      7 F         138.0706  139.8939  169.5469 F       1  UNL1       -0.2039
      8 C         137.7030  138.3347  167.5015 C.ar    1  UNL1        0.0299
      9 C         138.0357  137.9388  166.0935 C.ar    1  UNL1        0.0021
     10 C         139.0686  138.7062  165.3228 C.ar    1  UNL1        0.0008
     11 C         139.7689  139.8695  165.9601 C.ar    1  UNL1        0.0390
     12 H         140.8750  142.9387  169.1881 H       1  UNL1        0.2884
     13 H         139.6762  141.8725  169.7660 H       1  UNL1        0.2884
     14 C         141.8564  141.5749  164.6811 C.ar    1  UNL1        0.0468
     15 C         143.2781  141.0975  164.6514 C.ar    1  UNL1        0.0023
     16 C         144.3110  141.8649  163.8808 C.ar    1  UNL1        0.0342
     17 C         145.7327  141.3875  163.8511 C.3     1  UNL1        0.0360
     18 C         143.9223  143.1098  163.1398 C.ar    1  UNL1        0.2568
     19 O         144.9553  143.8773  162.3691 O.2     1  UNL1       -0.2673
     20 N         142.5007  143.5873  163.1694 N.ar    1  UNL1       -0.2946
     21 C         141.4677  142.8198  163.9401 C.ar    1  UNL1        0.0786
     22 C         142.1120  144.8322  162.4284 C.3     1  UNL1        0.1091
     23 C         140.8407  144.8655  161.6329 C.3     1  UNL1        0.0266
     24 C         139.9622  139.7564  161.7230 C.ar    1  UNL1        0.0014
     25 C         140.5141  138.3621  161.6868 C.ar    1  UNL1        0.0000
     26 C         141.1691  137.7829  162.9056 C.ar    1  UNL1       -0.0002
     27 C         141.2722  138.5980  164.1606 C.ar    1  UNL1        0.0004
     28 C         140.7203  139.9924  164.1968 C.ar    1  UNL1        0.0297
     29 C         140.0653  140.5716  162.9780 C.ar    1  UNL1        0.0004
     30 C         139.1194  142.2309  158.7369 C.ar    1  UNL1        0.0608
     31 C         137.9974  141.4945  158.0667 C.ar    1  UNL1        0.1071
     32 N         137.5304  140.1789  158.6153 N.ar    1  UNL1       -0.2417
     33 C         138.1853  139.5995  159.8341 C.ar    1  UNL1        0.0989
     34 C         139.3072  140.3358  160.5042 C.ar    1  UNL1        0.0198
     35 C         139.7743  141.6515  159.9556 C.ar    1  UNL1        0.0113
     36 C         140.5203  146.1778  157.0912 C.3     1  UNL1        0.0903
     37 C         140.0533  144.8622  157.6397 C.1     1  UNL1       -0.0853
     38 C         139.5864  143.5465  158.1884 C.1     1  UNL1       -0.0628
@<TRIPOS>BOND
     1    36    37    1
     2    37    38    3
     3    38    30    1
     4    30    31   ar
     5    31    32   ar
     6    32    33   ar
     7    33    34   ar
     8    34    24    1
     9    24    25   ar
    10    25    26   ar
    11    26    27   ar
    12    27    28   ar
    13     1    28    1
    14     1    14    1
    15    14    15   ar
    16    15    16   ar
    17    16    17    1
    18    16    18   ar
    19    18    19    2
    20    18    20   ar
    21    20    22    1
    22    22    23    1
    23    20    21   ar
    24     1     2    1
    25     2     3    2
    26     3     4    1
    27     3     5    1
    28     5     6   ar
    29     6     7    1
    30     6     8   ar
    31     8     9   ar
    32     9    10   ar
    33    10    11   ar
    34    28    29   ar
    35    34    35   ar
    36    35    30   ar
    37    29    24   ar
    38    11     1    1
    39    21    14   ar
    40    11     5   ar
    41     4    12    1
    42     4    13    1
@<TRIPOS>MOLECULE
*****
 38 42 0 0 0
SMALL
GASTEIGER

@<TRIPOS>ATOM
      1 C         140.9180  142.0080  162.2022 C.3     1  UNL1        0.2321
      2 N         141.8065  142.6844  161.2008 N.2     1  UNL1       -0.0614
      3 C         141.2822  144.0721  160.9787 C.2     1  UNL1        0.3157
      4 N         141.8676  145.0985  160.0547 N.pl3   1  UNL1       -0.2464
      5 C         140.0695  144.2533  161.8429 C.ar    1  UNL1        0.1094
      6 C         139.1412  145.4151  162.0389 C.ar    1  UNL1        0.1470
      7 F         139.3663  146.6908  161.2827 F       1  UNL1       -0.2039
      8 C         137.9879  145.3011  162.9910 C.ar    1  UNL1        0.0299
      9 C         137.7628  144.0254  163.7472 C.ar    1  UNL1        0.0021
     10 C         138.6911  142.8636  163.5512 C.ar    1  UNL1        0.0008
     11 C         139.8444  142.9776  162.5991 C.ar    1  UNL1        0.0390
     12 H         142.6699  144.8842  159.5260 H       1  UNL1        0.2884
     13 H         141.4496  145.9864  159.9771 H       1  UNL1        0.2884
     14 C         141.8463  140.8461  162.0062 C.ar    1  UNL1        0.0468
     15 C         142.8750  140.5238  163.0492 C.ar    1  UNL1        0.0023
     16 C         143.8034  139.3621  162.8532 C.ar    1  UNL1        0.0342
     17 C         144.8321  139.0398  163.8963 C.3     1  UNL1        0.0360
     18 C         143.7030  138.5226  161.6142 C.ar    1  UNL1        0.2568
     19 O         144.6314  137.3608  161.4182 O.2     1  UNL1       -0.2673
     20 N         142.6743  138.8449  160.5712 N.ar    1  UNL1       -0.2946
     21 C         141.7460  140.0067  160.7672 C.ar    1  UNL1        0.0786
     22 C         142.5740  138.0054  159.3322 C.3     1  UNL1        0.1091
     23 C         141.6105  138.3831  158.2463 C.3     1  UNL1        0.0266
     24 C         139.8219  140.2582  165.5916 C.ar    1  UNL1        0.0014
     25 C         138.8345  139.2498  165.0835 C.ar    1  UNL1        0.0000
     26 C         138.5415  139.1607  163.6151 C.ar    1  UNL1       -0.0002
     27 C         139.2360  140.0801  162.6547 C.ar    1  UNL1        0.0004
     28 C         140.2235  141.0886  163.1627 C.ar    1  UNL1        0.0297
     29 C         140.5164  141.1777  164.6311 C.ar    1  UNL1        0.0004
     30 C         141.6386  141.1492  169.0055 C.ar    1  UNL1        0.0608
     31 C         140.7010  140.5257  169.9967 C.ar    1  UNL1        0.1071
     32 N         139.4704  139.8131  169.5194 N.ar    1  UNL1       -0.2417
     33 C         139.1773  139.7239  168.0510 C.ar    1  UNL1        0.0989
     34 C         140.1149  140.3473  167.0600 C.ar    1  UNL1        0.0198
     35 C         141.3455  141.0600  167.5372 C.ar    1  UNL1        0.0113
     36 C         145.3304  143.2871  170.4373 C.3     1  UNL1        0.0903
     37 C         144.0998  142.5744  169.9600 C.1     1  UNL1       -0.0853
     38 C         142.8691  141.8619  169.4828 C.1     1  UNL1       -0.0628
@<TRIPOS>BOND
     1    36    37    1
     2    37    38    3
     3    38    30    1
     4    30    31   ar
     5    31    32   ar
     6    32    33   ar
     7    33    34   ar
     8    34    24    1
     9    24    25   ar
    10    25    26   ar
    11    26    27   ar
    12    27    28   ar
    13     1    28    1
    14     1    14    1
    15    14    15   ar
    16    15    16   ar
    17    16    17    1
    18    16    18   ar
    19    18    19    2
    20    18    20   ar
    21    20    22    1
    22    22    23    1
    23    20    21   ar
    24     1     2    1
    25     2     3    2
    26     3     4    1
    27     3     5    1
    28     5     6   ar
    29     6     7    1
    30     6     8   ar
    31     8     9   ar
    32     9    10   ar
    33    10    11   ar
    34    28    29   ar
    35    34    35   ar
    36    35    30   ar
    37    29    24   ar
    38    11     1    1
    39    21    14   ar
    40    11     5   ar
    41     4    12    1
    42     4    13    1
@<TRIPOS>MOLECULE
*****
 38 42 0 0 0
SMALL
GASTEIGER

@<TRIPOS>ATOM
      1 C         140.8813  142.0227  162.0424 C.3     1  UNL1        0.2321
      2 N         141.7981  142.6970  161.0652 N.2     1  UNL1       -0.0614
      3 C         141.3031  144.0974  160.8557 C.2     1  UNL1        0.3157
      4 N         141.9221  145.1261  159.9564 N.pl3   1  UNL1       -0.2464
      5 C         140.0804  144.2886  161.7033 C.ar    1  UNL1        0.1094
      6 C         139.1708  145.4646  161.9021 C.ar    1  UNL1        0.1470
      7 F         139.4315  146.7468  161.1687 F       1  UNL1       -0.2039
      8 C         138.0004  145.3583  162.8343 C.ar    1  UNL1        0.0299
      9 C         137.7398  144.0761  163.5677 C.ar    1  UNL1        0.0021
     10 C         138.6494  142.9001  163.3689 C.ar    1  UNL1        0.0008
     11 C         139.8197  143.0064  162.4367 C.ar    1  UNL1        0.0390
     12 H         142.7287  144.9046  159.4372 H       1  UNL1        0.2884
     13 H         141.5219  146.0227  159.8855 H       1  UNL1        0.2884
     14 C         141.7911  140.8467  161.8436 C.ar    1  UNL1        0.0468
     15 C         141.7382  140.0655  160.5642 C.ar    1  UNL1        0.0023
     16 C         142.6478  138.8895  160.3653 C.ar    1  UNL1        0.0342
     17 C         142.5949  138.1083  159.0859 C.3     1  UNL1        0.0360
     18 C         143.6104  138.4948  161.4459 C.ar    1  UNL1        0.2568
     19 O         144.5201  137.3188  161.2471 O.2     1  UNL1       -0.2673
     20 N         143.6633  139.2760  162.7253 N.ar    1  UNL1       -0.2946
     21 C         142.7536  140.4520  162.9241 C.ar    1  UNL1        0.0786
     22 C         144.6259  138.8813  163.8059 C.3     1  UNL1        0.1091
     23 C         144.2386  139.0323  165.2471 C.3     1  UNL1        0.0266
     24 C         139.7005  140.2431  165.3873 C.ar    1  UNL1        0.0014
     25 C         138.7015  139.2622  164.8491 C.ar    1  UNL1        0.0000
     26 C         138.4290  139.2014  163.3753 C.ar    1  UNL1       -0.0002
     27 C         139.1556  140.1216  162.4397 C.ar    1  UNL1        0.0004
     28 C         140.1547  141.1026  162.9779 C.ar    1  UNL1        0.0297
     29 C         140.4272  141.1633  164.4517 C.ar    1  UNL1        0.0004
     30 C         141.4748  141.0589  168.8422 C.ar    1  UNL1        0.0608
     31 C         140.5182  140.4256  169.8086 C.ar    1  UNL1        0.1071
     32 N         139.2891  139.7315  169.3013 N.ar    1  UNL1       -0.2417
     33 C         139.0165  139.6706  167.8275 C.ar    1  UNL1        0.0989
     34 C         139.9730  140.3039  166.8611 C.ar    1  UNL1        0.0198
     35 C         141.2022  140.9981  167.3685 C.ar    1  UNL1        0.0113
     36 C         145.1622  143.1413  170.3642 C.3     1  UNL1        0.0903
     37 C         143.9331  142.4472  169.8568 C.1     1  UNL1       -0.0853
     38 C         142.7039  141.7531  169.3495 C.1     1  UNL1       -0.0628
@<TRIPOS>BOND
     1    36    37    1
     2    37    38    3
     3    38    30    1
     4    30    31   ar
     5    31    32   ar
     6    32    33   ar
     7    33    34   ar
     8    34    24    1
     9    24    25   ar
    10    25    26   ar
    11    26    27   ar
    12    27    28   ar
    13     1    28    1
    14     1    14    1
    15    14    15   ar
    16    15    16   ar
    17    16    17    1
    18    16    18   ar
    19    18    19    2
    20    18    20   ar
    21    20    22    1
    22    22    23    1
    23    20    21   ar
    24     1     2    1
    25     2     3    2
    26     3     4    1
    27     3     5    1
    28     5     6   ar
    29     6     7    1
    30     6     8   ar
    31     8     9   ar
    32     9    10   ar
    33    10    11   ar
    34    28    29   ar
    35    34    35   ar
    36    35    30   ar
    37    29    24   ar
    38    11     1    1
    39    21    14   ar
    40    11     5   ar
    41     4    12    1
    42     4    13    1
@<TRIPOS>MOLECULE
*****
 38 42 0 0 0
SMALL
GASTEIGER

@<TRIPOS>ATOM
      1 C         140.9291  141.9151  162.3220 C.3     1  UNL1        0.2321
      2 N         141.8460  142.6444  161.3852 N.2     1  UNL1       -0.0614
      3 C         141.3074  144.0315  161.1958 C.2     1  UNL1        0.3157
      4 N         141.9123  145.1026  160.3374 N.pl3   1  UNL1       -0.2464
      5 C         140.0577  144.1595  162.0155 C.ar    1  UNL1        0.1094
      6 C         139.1025  145.2981  162.2180 C.ar    1  UNL1        0.1470
      7 F         139.3363  146.6061  161.5220 F       1  UNL1       -0.2039
      8 C         137.9134  145.1287  163.1166 C.ar    1  UNL1        0.0299
      9 C         137.6796  143.8206  163.8126 C.ar    1  UNL1        0.0021
     10 C         138.6349  142.6820  163.6101 C.ar    1  UNL1        0.0008
     11 C         139.8239  142.8515  162.7115 C.ar    1  UNL1        0.0390
     12 H         142.7390  144.9218  159.8343 H       1  UNL1        0.2884
     13 H         141.4826  145.9863  160.2772 H       1  UNL1        0.2884
     14 C         141.8844  140.7764  162.1194 C.ar    1  UNL1        0.0468
     15 C         142.8821  140.4357  163.1864 C.ar    1  UNL1        0.0023
     16 C         143.8374  139.2971  162.9838 C.ar    1  UNL1        0.0342
     17 C         144.8351  138.9563  164.0508 C.3     1  UNL1        0.0360
     18 C         143.7950  138.4993  161.7143 C.ar    1  UNL1        0.2568
     19 O         144.7503  137.3607  161.5118 O.2     1  UNL1       -0.2673
     20 N         142.7973  138.8401  160.6474 N.ar    1  UNL1       -0.2946
     21 C         141.8420  139.9787  160.8499 C.ar    1  UNL1        0.0786
     22 C         142.7549  138.0422  159.3778 C.3     1  UNL1        0.1091
     23 C         141.6316  138.2415  158.4039 C.3     1  UNL1        0.0266
     24 C         139.6114  140.1086  165.6008 C.ar    1  UNL1        0.0014
     25 C         138.7776  139.0131  165.0052 C.ar    1  UNL1        0.0000
     26 C         138.6610  138.8849  163.5152 C.ar    1  UNL1       -0.0002
     27 C         139.3782  139.8522  162.6208 C.ar    1  UNL1        0.0004
     28 C         140.2120  140.9478  163.2164 C.ar    1  UNL1        0.0297
     29 C         140.3286  141.0760  164.7063 C.ar    1  UNL1        0.0004
     30 C         138.7357  139.8758  169.4645 C.ar    1  UNL1        0.0608
     31 C         139.9612  140.4933  170.0706 C.ar    1  UNL1        0.1071
     32 N         141.0699  140.9825  169.1867 N.ar    1  UNL1       -0.2417
     33 C         140.9533  140.8542  167.6967 C.ar    1  UNL1        0.0989
     34 C         139.7280  140.2368  167.0907 C.ar    1  UNL1        0.0198
     35 C         138.6192  139.7476  167.9746 C.ar    1  UNL1        0.0113
     36 C         135.4094  138.4082  172.1162 C.3     1  UNL1        0.0903
     37 C         136.5182  138.8974  171.2323 C.1     1  UNL1       -0.0853
     38 C         137.6270  139.3866  170.3484 C.1     1  UNL1       -0.0628
@<TRIPOS>BOND
     1    36    37    1
     2    37    38    3
     3    38    30    1
     4    30    31   ar
     5    31    32   ar
     6    32    33   ar
     7    33    34   ar
     8    34    24    1
     9    24    25   ar
    10    25    26   ar
    11    26    27   ar
    12    27    28   ar
    13     1    28    1
    14     1    14    1
    15    14    15   ar
    16    15    16   ar
    17    16    17    1
    18    16    18   ar
    19    18    19    2
    20    18    20   ar
    21    20    22    1
    22    22    23    1
    23    20    21   ar
    24     1     2    1
    25     2     3    2
    26     3     4    1
    27     3     5    1
    28     5     6   ar
    29     6     7    1
    30     6     8   ar
    31     8     9   ar
    32     9    10   ar
    33    10    11   ar
    34    28    29   ar
    35    34    35   ar
    36    35    30   ar
    37    29    24   ar
    38    11     1    1
    39    21    14   ar
    40    11     5   ar
    41     4    12    1
    42     4    13    1
@<TRIPOS>MOLECULE
*****
 38 42 0 0 0
SMALL
GASTEIGER

@<TRIPOS>ATOM
      1 C         141.1660  142.1151  166.9502 C.3     1  UNL1        0.2321
      2 N         140.4533  143.1461  167.7744 N.2     1  UNL1       -0.0614
      3 C         140.4730  142.6914  169.2037 C.2     1  UNL1        0.3157
      4 N         139.8731  143.4206  170.3692 N.pl3   1  UNL1       -0.2464
      5 C         141.1978  141.3795  169.2629 C.ar    1  UNL1        0.1094
      6 C         141.5231  140.4632  170.4050 C.ar    1  UNL1        0.1470
      7 F         141.0948  140.8194  171.7977 F       1  UNL1       -0.2039
      8 C         142.2768  139.1908  170.1544 C.ar    1  UNL1        0.0299
      9 C         142.7051  138.8346  168.7616 C.ar    1  UNL1        0.0021
     10 C         142.3797  139.7509  167.6195 C.ar    1  UNL1        0.0008
     11 C         141.6261  141.0233  167.8701 C.ar    1  UNL1        0.0390
     12 H         139.4147  144.2805  170.2288 H       1  UNL1        0.2884
     13 H         139.9378  143.0393  171.2745 H       1  UNL1        0.2884
     14 C         140.8406  143.0315  165.8080 C.ar    1  UNL1        0.0468
     15 C         139.4105  143.2791  165.4292 C.ar    1  UNL1        0.0023
     16 C         139.0851  144.1955  164.2871 C.ar    1  UNL1        0.0342
     17 C         137.6550  144.4431  163.9082 C.3     1  UNL1        0.0360
     18 C         140.1897  144.8641  163.5239 C.ar    1  UNL1        0.2568
     19 O         139.8643  145.7805  162.3817 O.2     1  UNL1       -0.2673
     20 N         141.6198  144.6165  163.9027 N.ar    1  UNL1       -0.2946
     21 C         141.9452  143.7002  165.0448 C.ar    1  UNL1        0.0786
     22 C         142.7245  145.2853  163.1395 C.3     1  UNL1        0.1091
     23 C         144.0177  144.5626  162.9040 C.3     1  UNL1        0.0266
     24 C         141.6152  139.8100  163.7510 C.ar    1  UNL1        0.0014
     25 C         143.1000  139.5971  163.7613 C.ar    1  UNL1        0.0000
     26 C         143.9401  140.2235  164.8346 C.ar    1  UNL1       -0.0002
     27 C         143.2954  141.0628  165.8975 C.ar    1  UNL1        0.0004
     28 C         141.8106  141.2758  165.8873 C.ar    1  UNL1        0.0297
     29 C         140.9705  140.6494  164.8140 C.ar    1  UNL1        0.0004
     30 C         140.4006  138.5798  160.1788 C.ar    1  UNL1        0.0608
     31 C         139.0949  137.9310  160.5313 C.ar    1  UNL1        0.1071
     32 N         138.6293  137.9086  161.9570 N.ar    1  UNL1       -0.2417
     33 C         139.4694  138.5349  163.0303 C.ar    1  UNL1        0.0989
     34 C         140.7750  139.1836  162.6778 C.ar    1  UNL1        0.0198
     35 C         141.2407  139.2061  161.2520 C.ar    1  UNL1        0.0113
     36 C         141.7974  138.6471  155.9016 C.3     1  UNL1        0.0903
     37 C         141.3318  138.6247  157.3273 C.1     1  UNL1       -0.0853
     38 C         140.8662  138.6022  158.7531 C.1     1  UNL1       -0.0628
@<TRIPOS>BOND
     1    36    37    1
     2    37    38    3
     3    38    30    1
     4    30    31   ar
     5    31    32   ar
     6    32    33   ar
     7    33    34   ar
     8    34    24    1
     9    24    25   ar
    10    25    26   ar
    11    26    27   ar
    12    27    28   ar
    13     1    28    1
    14     1    14    1
    15    14    15   ar
    16    15    16   ar
    17    16    17    1
    18    16    18   ar
    19    18    19    2
    20    18    20   ar
    21    20    22    1
    22    22    23    1
    23    20    21   ar
    24     1     2    1
    25     2     3    2
    26     3     4    1
    27     3     5    1
    28     5     6   ar
    29     6     7    1
    30     6     8   ar
    31     8     9   ar
    32     9    10   ar
    33    10    11   ar
    34    28    29   ar
    35    34    35   ar
    36    35    30   ar
    37    29    24   ar
    38    11     1    1
    39    21    14   ar
    40    11     5   ar
    41     4    12    1
    42     4    13    1
@<TRIPOS>MOLECULE
*****
 38 42 0 0 0
SMALL
GASTEIGER

@<TRIPOS>ATOM
      1 C         142.4215  143.2750  159.8012 C.3     1  UNL1        0.2321
      2 N         141.9233  143.8878  158.5259 N.2     1  UNL1       -0.0614
      3 C         140.9803  144.9984  158.8829 C.2     1  UNL1        0.3157
      4 N         140.2501  145.8806  157.9141 N.pl3   1  UNL1       -0.2464
      5 C         140.8957  145.0720  160.3787 C.ar    1  UNL1        0.1094
      6 C         140.1228  145.9712  161.2973 C.ar    1  UNL1        0.1470
      7 F         139.2321  147.0364  160.7298 F       1  UNL1       -0.2039
      8 C         140.2405  145.8053  162.7834 C.ar    1  UNL1        0.0299
      9 C         141.1312  144.7401  163.3509 C.ar    1  UNL1        0.0021
     10 C         141.9042  143.8409  162.4324 C.ar    1  UNL1        0.0008
     11 C         141.7864  144.0068  160.9463 C.ar    1  UNL1        0.0390
     12 H         140.3714  145.7542  156.9454 H       1  UNL1        0.2884
     13 H         139.6495  146.5861  158.2471 H       1  UNL1        0.2884
     14 C         143.1945  142.3757  158.8825 C.ar    1  UNL1        0.0468
     15 C         142.6560  141.0204  158.5315 C.ar    1  UNL1        0.0023
     16 C         143.4289  140.1212  157.6129 C.ar    1  UNL1        0.0342
     17 C         142.8904  138.7659  157.2618 C.3     1  UNL1        0.0360
     18 C         144.7403  140.5772  157.0453 C.ar    1  UNL1        0.2568
     19 O         145.5133  139.6779  156.1266 O.2     1  UNL1       -0.2673
     20 N         145.2788  141.9325  157.3963 N.ar    1  UNL1       -0.2946
     21 C         144.5059  142.8317  158.3149 C.ar    1  UNL1        0.0786
     22 C         146.5903  142.3885  156.8287 C.3     1  UNL1        0.1091
     23 C         147.5542  143.1523  157.6874 C.3     1  UNL1        0.0266
     24 C         142.9404  140.6862  162.7641 C.ar    1  UNL1        0.0014
     25 C         144.4009  140.8724  163.0507 C.ar    1  UNL1        0.0000
     26 C         145.2017  141.8595  162.2541 C.ar    1  UNL1       -0.0002
     27 C         144.5419  142.6604  161.1710 C.ar    1  UNL1        0.0004
     28 C         143.0813  142.4741  160.8843 C.ar    1  UNL1        0.0297
     29 C         142.2805  141.4870  161.6809 C.ar    1  UNL1        0.0004
     30 C         140.7415  139.1181  165.6719 C.ar    1  UNL1        0.0608
     31 C         140.5380  137.7252  165.1538 C.ar    1  UNL1        0.1071
     32 N         141.1354  137.3193  163.8391 N.ar    1  UNL1       -0.2417
     33 C         141.9362  138.3063  163.0425 C.ar    1  UNL1        0.0989
     34 C         142.1396  139.6991  163.5606 C.ar    1  UNL1        0.0198
     35 C         141.5422  140.1050  164.8754 C.ar    1  UNL1        0.0113
     36 C         138.9493  140.3358  169.6160 C.3     1  UNL1        0.0903
     37 C         139.5467  139.9299  168.3013 C.1     1  UNL1       -0.0853
     38 C         140.1441  139.5240  166.9866 C.1     1  UNL1       -0.0628
@<TRIPOS>BOND
     1    36    37    1
     2    37    38    3
     3    38    30    1
     4    30    31   ar
     5    31    32   ar
     6    32    33   ar
     7    33    34   ar
     8    34    24    1
     9    24    25   ar
    10    25    26   ar
    11    26    27   ar
    12    27    28   ar
    13     1    28    1
    14     1    14    1
    15    14    15   ar
    16    15    16   ar
    17    16    17    1
    18    16    18   ar
    19    18    19    2
    20    18    20   ar
    21    20    22    1
    22    22    23    1
    23    20    21   ar
    24     1     2    1
    25     2     3    2
    26     3     4    1
    27     3     5    1
    28     5     6   ar
    29     6     7    1
    30     6     8   ar
    31     8     9   ar
    32     9    10   ar
    33    10    11   ar
    34    28    29   ar
    35    34    35   ar
    36    35    30   ar
    37    29    24   ar
    38    11     1    1
    39    21    14   ar
    40    11     5   ar
    41     4    12    1
    42     4    13    1
@<TRIPOS>MOLECULE
*****
 38 42 0 0 0
SMALL
GASTEIGER

@<TRIPOS>ATOM
      1 C         140.5302  140.7756  167.0163 C.3     1  UNL1        0.2321
      2 N         139.4075  140.1115  167.7569 N.2     1  UNL1       -0.0614
      3 C         139.6231  140.3365  169.2242 C.2     1  UNL1        0.3157
      4 N         138.7382  139.8448  170.3310 N.pl3   1  UNL1       -0.2464
      5 C         140.8790  141.1397  169.3904 C.ar    1  UNL1        0.1094
      6 C         141.5846  141.6590  170.6079 C.ar    1  UNL1        0.1470
      7 F         141.0240  141.3877  171.9725 F       1  UNL1       -0.2039
      8 C         142.8507  142.4497  170.4609 C.ar    1  UNL1        0.0299
      9 C         143.4113  142.7210  169.0963 C.ar    1  UNL1        0.0021
     10 C         142.7058  142.2017  167.8787 C.ar    1  UNL1        0.0008
     11 C         141.4396  141.4110  168.0258 C.ar    1  UNL1        0.0390
     12 H         137.9308  139.3222  170.1205 H       1  UNL1        0.2884
     13 H         138.9647  140.0446  171.2680 H       1  UNL1        0.2884
     14 C         139.8246  140.2562  165.7987 C.ar    1  UNL1        0.0468
     15 C         140.0729  138.8534  165.3292 C.ar    1  UNL1        0.0023
     16 C         139.3674  138.3340  164.1117 C.ar    1  UNL1        0.0342
     17 C         139.6157  136.9312  163.6422 C.3     1  UNL1        0.0360
     18 C         138.4134  139.2174  163.3637 C.ar    1  UNL1        0.2568
     19 O         137.7078  138.6980  162.1461 O.2     1  UNL1       -0.2673
     20 N         138.1651  140.6202  163.8332 N.ar    1  UNL1       -0.2946
     21 C         138.8706  141.1396  165.0507 C.ar    1  UNL1        0.0786
     22 C         137.2111  141.5037  163.0851 C.3     1  UNL1        0.1091
     23 C         137.4690  142.9785  162.9941 C.3     1  UNL1        0.0266
     24 C         142.0153  142.8579  163.9817 C.ar    1  UNL1        0.0014
     25 C         143.4557  142.4421  164.0306 C.ar    1  UNL1        0.0000
     26 C         143.9210  141.4708  165.0748 C.ar    1  UNL1       -0.0002
     27 C         142.9458  140.9153  166.0700 C.ar    1  UNL1        0.0004
     28 C         141.5053  141.3311  166.0211 C.ar    1  UNL1        0.0297
     29 C         141.0401  142.3024  164.9770 C.ar    1  UNL1        0.0004
     30 C         141.4782  144.6051  160.4592 C.ar    1  UNL1        0.0608
     31 C         140.6195  145.7716  160.8494 C.ar    1  UNL1        0.1071
     32 N         140.2262  145.9668  162.2837 N.ar    1  UNL1       -0.2417
     33 C         140.6914  144.9955  163.3278 C.ar    1  UNL1        0.0989
     34 C         141.5500  143.8292  162.9376 C.ar    1  UNL1        0.0198
     35 C         141.9434  143.6339  161.5033 C.ar    1  UNL1        0.0113
     36 C         142.6583  144.0196  156.1564 C.3     1  UNL1        0.0903
     37 C         142.2649  144.2148  157.5906 C.1     1  UNL1       -0.0853
     38 C         141.8715  144.4099  159.0249 C.1     1  UNL1       -0.0628
@<TRIPOS>BOND
     1    36    37    1
     2    37    38    3
     3    38    30    1
     4    30    31   ar
     5    31    32   ar
     6    32    33   ar
     7    33    34   ar
     8    34    24    1
     9    24    25   ar
    10    25    26   ar
    11    26    27   ar
    12    27    28   ar
    13     1    28    1
    14     1    14    1
    15    14    15   ar
    16    15    16   ar
    17    16    17    1
    18    16    18   ar
    19    18    19    2
    20    18    20   ar
    21    20    22    1
    22    22    23    1
    23    20    21   ar
    24     1     2    1
    25     2     3    2
    26     3     4    1
    27     3     5    1
    28     5     6   ar
    29     6     7    1
    30     6     8   ar
    31     8     9   ar
    32     9    10   ar
    33    10    11   ar
    34    28    29   ar
    35    34    35   ar
    36    35    30   ar
    37    29    24   ar
    38    11     1    1
    39    21    14   ar
    40    11     5   ar
    41     4    12    1
    42     4    13    1
