@<TRIPOS>MOLECULE
*****
 27 29 0 0 0
SMALL
GASTEIGER

@<TRIPOS>ATOM
      1 N         140.4592  141.7510  164.0510 N.pl3   1  UNL1       -0.3038
      2 C         140.2375  141.3408  165.4767 C.ar    1  UNL1        0.0490
      3 C         139.5487  140.0447  165.7858 C.ar    1  UNL1        0.0153
      4 C         139.3269  139.6346  167.2115 C.ar    1  UNL1        0.0124
      5 C         139.7940  140.5206  168.3281 C.ar    1  UNL1        0.0791
      6 C         140.4828  141.8168  168.0190 C.ar    1  UNL1        0.0685
      7 CL        140.9499  142.7028  169.1356 Cl      1  UNL1       -0.0815
      8 C         140.7046  142.2269  166.5933 C.ar    1  UNL1        0.0266
      9 C         139.5722  140.1104  169.7538 C.1     1  UNL1        0.1013
     10 N         139.3505  139.7003  171.1795 N.1     1  UNL1       -0.1908
     11 C         139.5392  146.3839  161.6908 C.3     1  UNL1        0.0897
     12 N         139.3347  145.0862  162.4148 N.3     1  UNL1       -0.2700
     13 C         138.0209  144.5379  162.8876 C.3     1  UNL1        0.0739
     14 C         138.2823  143.2217  163.5581 C.3     1  UNL1        0.0385
     15 C         139.7576  142.9567  163.4996 C.3     1  UNL1        0.0904
     16 C         140.4079  144.1090  162.7930 C.3     1  UNL1        0.0921
     17 C         141.3826  140.9554  163.1766 C.3     1  UNL1        0.1176
     18 C         142.8680  141.0989  163.3282 C.ar    1  UNL1        0.0015
     19 C         143.5721  142.2813  162.7314 C.ar    1  UNL1       -0.0027
     20 C         145.0575  142.4247  162.8829 C.ar    1  UNL1       -0.0003
     21 C         145.8388  141.3857  163.6312 C.ar    1  UNL1       -0.0001
     22 C         145.1348  140.2032  164.2279 C.ar    1  UNL1        0.0036
     23 C         143.6494  140.0598  164.0764 C.ar    1  UNL1        0.0691
     24 C         142.9453  138.8774  164.6732 C.3     1  UNL1        0.4183
     25 F         142.2413  137.6949  165.2699 F       1  UNL1       -0.1659
     26 F         143.0105  138.1715  163.3513 F       1  UNL1       -0.1659
     27 F         142.8802  139.5832  165.9951 F       1  UNL1       -0.1659
@<TRIPOS>BOND
     1    11    12    1
     2    12    13    1
     3    13    14    1
     4    14    15    1
     5    15     1    1
     6     1    17    1
     7    17    18    1
     8    18    19   ar
     9    19    20   ar
    10    20    21   ar
    11    21    22   ar
    12    22    23   ar
    13    23    24    1
    14    24    25    1
    15    24    26    1
    16    24    27    1
    17     1     2    1
    18     2     3   ar
    19     3     4   ar
    20     4     5   ar
    21     5     9    1
    22     9    10    3
    23     5     6   ar
    24     6     7    1
    25     6     8   ar
    26    15    16    1
    27    16    12    1
    28    23    18   ar
    29     8     2   ar
@<TRIPOS>MOLECULE
*****
 27 29 0 0 0
SMALL
GASTEIGER

@<TRIPOS>ATOM
      1 N         142.2936  139.4950  165.4542 N.pl3   1  UNL1       -0.3038
      2 C         141.9228  140.0372  166.8028 C.ar    1  UNL1        0.0490
      3 C         140.8494  141.0779  166.9234 C.ar    1  UNL1        0.0153
      4 C         140.4786  141.6201  168.2720 C.ar    1  UNL1        0.0124
      5 C         141.1812  141.1216  169.4998 C.ar    1  UNL1        0.0791
      6 C         142.2547  140.0808  169.3792 C.ar    1  UNL1        0.0685
      7 CL        142.9573  139.5823  170.6071 Cl      1  UNL1       -0.0815
      8 C         142.6255  139.5386  168.0307 C.ar    1  UNL1        0.0266
      9 C         140.8104  141.6638  170.8484 C.1     1  UNL1        0.1013
     10 N         140.4396  142.2060  172.1969 N.1     1  UNL1       -0.1908
     11 C         144.4018  143.1118  162.2364 C.3     1  UNL1        0.0897
     12 N         144.2336  141.9029  163.1082 N.3     1  UNL1       -0.2700
     13 C         145.2840  140.8720  163.3983 C.3     1  UNL1        0.0739
     14 C         144.6851  139.8445  164.3125 C.3     1  UNL1        0.0385
     15 C         143.2646  140.2404  164.5873 C.3     1  UNL1        0.0904
     16 C         142.9856  141.5125  163.8431 C.3     1  UNL1        0.0921
     17 C         141.6934  138.2075  164.9727 C.3     1  UNL1        0.1176
     18 C         140.8049  138.1999  163.7641 C.ar    1  UNL1        0.0015
     19 C         141.4041  138.0896  162.3935 C.ar    1  UNL1       -0.0027
     20 C         140.5156  138.0820  161.1849 C.ar    1  UNL1       -0.0003
     21 C         139.0279  138.1847  161.3471 C.ar    1  UNL1       -0.0001
     22 C         138.4287  138.2950  162.7179 C.ar    1  UNL1        0.0036
     23 C         139.3172  138.3026  163.9264 C.ar    1  UNL1        0.0691
     24 C         138.7181  138.4129  165.2971 C.3     1  UNL1        0.4183
     25 F         138.1190  138.5232  166.6677 F       1  UNL1       -0.1659
     26 F         138.8180  136.9252  165.4604 F       1  UNL1       -0.1659
     27 F         138.6182  139.9006  165.1337 F       1  UNL1       -0.1659
@<TRIPOS>BOND
     1    11    12    1
     2    12    13    1
     3    13    14    1
     4    14    15    1
     5    15     1    1
     6     1    17    1
     7    17    18    1
     8    18    19   ar
     9    19    20   ar
    10    20    21   ar
    11    21    22   ar
    12    22    23   ar
    13    23    24    1
    14    24    25    1
    15    24    26    1
    16    24    27    1
    17     1     2    1
    18     2     3   ar
    19     3     4   ar
    20     4     5   ar
    21     5     9    1
    22     9    10    3
    23     5     6   ar
    24     6     7    1
    25     6     8   ar
    26    15    16    1
    27    16    12    1
    28    23    18   ar
    29     8     2   ar
@<TRIPOS>MOLECULE
*****
 27 29 0 0 0
SMALL
GASTEIGER

@<TRIPOS>ATOM
      1 N         140.5287  140.9466  166.0797 N.pl3   1  UNL1       -0.3038
      2 C         140.3366  142.0981  165.1378 C.ar    1  UNL1        0.0490
      3 C         141.5280  142.8323  164.5980 C.ar    1  UNL1        0.0153
      4 C         141.3358  143.9838  163.6561 C.ar    1  UNL1        0.0124
      5 C         139.9523  144.4010  163.2540 C.ar    1  UNL1        0.0791
      6 C         138.7608  143.6668  163.7939 C.ar    1  UNL1        0.0685
      7 CL        137.3773  144.0841  163.3918 Cl      1  UNL1       -0.0815
      8 C         138.9530  142.5153  164.7358 C.ar    1  UNL1        0.0266
      9 C         139.7602  145.5525  162.3122 C.1     1  UNL1        0.1013
     10 N         139.5681  146.7040  161.3703 N.1     1  UNL1       -0.1908
     11 C         139.9039  143.0115  170.8990 C.3     1  UNL1        0.0897
     12 N         139.9012  142.0502  169.7476 N.3     1  UNL1       -0.2700
     13 C         139.4280  140.6273  169.7881 C.3     1  UNL1        0.0739
     14 C         139.6055  140.0407  168.4190 C.3     1  UNL1        0.0385
     15 C         140.1883  141.1011  167.5324 C.3     1  UNL1        0.0904
     16 C         140.3710  142.3430  168.3536 C.3     1  UNL1        0.0921
     17 C         141.0611  139.6406  165.5689 C.3     1  UNL1        0.1176
     18 C         140.5645  139.0861  164.2667 C.ar    1  UNL1        0.0015
     19 C         141.3808  139.2550  163.0196 C.ar    1  UNL1       -0.0027
     20 C         140.8842  138.7005  161.7173 C.ar    1  UNL1       -0.0003
     21 C         139.5714  137.9770  161.6621 C.ar    1  UNL1       -0.0001
     22 C         138.7551  137.8080  162.9092 C.ar    1  UNL1        0.0036
     23 C         139.2517  138.3625  164.2115 C.ar    1  UNL1        0.0691
     24 C         138.4355  138.1936  165.4585 C.3     1  UNL1        0.4183
     25 F         137.6192  138.0246  166.7056 F       1  UNL1       -0.1659
     26 F         137.8231  139.5454  165.2409 F       1  UNL1       -0.1659
     27 F         139.0478  136.8417  165.6762 F       1  UNL1       -0.1659
@<TRIPOS>BOND
     1    11    12    1
     2    12    13    1
     3    13    14    1
     4    14    15    1
     5    15     1    1
     6     1    17    1
     7    17    18    1
     8    18    19   ar
     9    19    20   ar
    10    20    21   ar
    11    21    22   ar
    12    22    23   ar
    13    23    24    1
    14    24    25    1
    15    24    26    1
    16    24    27    1
    17     1     2    1
    18     2     3   ar
    19     3     4   ar
    20     4     5   ar
    21     5     9    1
    22     9    10    3
    23     5     6   ar
    24     6     7    1
    25     6     8   ar
    26    15    16    1
    27    16    12    1
    28    23    18   ar
    29     8     2   ar
@<TRIPOS>MOLECULE
*****
 27 29 0 0 0
SMALL
GASTEIGER

@<TRIPOS>ATOM
      1 N         142.5187  142.5726  164.6251 N.pl3   1  UNL1       -0.3038
      2 C         142.1645  142.4781  166.0796 C.ar    1  UNL1        0.0490
      3 C         140.7252  142.4399  166.5001 C.ar    1  UNL1        0.0153
      4 C         140.3710  142.3454  167.9546 C.ar    1  UNL1        0.0124
      5 C         141.4561  142.2892  168.9887 C.ar    1  UNL1        0.0791
      6 C         142.8955  142.3274  168.5682 C.ar    1  UNL1        0.0685
      7 CL        143.9807  142.2712  169.6022 Cl      1  UNL1       -0.0815
      8 C         143.2497  142.4219  167.1137 C.ar    1  UNL1        0.0266
      9 C         141.1019  142.1947  170.4432 C.1     1  UNL1        0.1013
     10 N         140.7478  142.1002  171.8977 N.1     1  UNL1       -0.1908
     11 C         139.8771  146.2119  161.8578 C.3     1  UNL1        0.0897
     12 N         140.3540  144.8933  162.3903 N.3     1  UNL1       -0.2700
     13 C         139.8571  143.5414  161.9711 C.3     1  UNL1        0.0739
     14 C         140.6076  142.5075  162.7574 C.3     1  UNL1        0.0385
     15 C         141.5682  143.2205  163.6623 C.3     1  UNL1        0.0904
     16 C         141.4114  144.6949  163.4355 C.3     1  UNL1        0.0921
     17 C         143.8232  142.0193  164.1334 C.3     1  UNL1        0.1176
     18 C         143.8347  140.9227  163.1100 C.ar    1  UNL1        0.0015
     19 C         143.9512  141.2580  161.6527 C.ar    1  UNL1       -0.0027
     20 C         143.9627  140.1613  160.6293 C.ar    1  UNL1       -0.0003
     21 C         143.8577  138.7294  161.0634 C.ar    1  UNL1       -0.0001
     22 C         143.7413  138.3940  162.5208 C.ar    1  UNL1        0.0036
     23 C         143.7298  139.4906  163.5441 C.ar    1  UNL1        0.0691
     24 C         143.6134  139.1553  165.0015 C.3     1  UNL1        0.4183
     25 F         143.4970  138.8200  166.4589 F       1  UNL1       -0.1659
     26 F         142.1241  139.3137  164.9190 F       1  UNL1       -0.1659
     27 F         145.1027  138.9969  165.0840 F       1  UNL1       -0.1659
@<TRIPOS>BOND
     1    11    12    1
     2    12    13    1
     3    13    14    1
     4    14    15    1
     5    15     1    1
     6     1    17    1
     7    17    18    1
     8    18    19   ar
     9    19    20   ar
    10    20    21   ar
    11    21    22   ar
    12    22    23   ar
    13    23    24    1
    14    24    25    1
    15    24    26    1
    16    24    27    1
    17     1     2    1
    18     2     3   ar
    19     3     4   ar
    20     4     5   ar
    21     5     9    1
    22     9    10    3
    23     5     6   ar
    24     6     7    1
    25     6     8   ar
    26    15    16    1
    27    16    12    1
    28    23    18   ar
    29     8     2   ar
@<TRIPOS>MOLECULE
*****
 27 29 0 0 0
SMALL
GASTEIGER

@<TRIPOS>ATOM
      1 N         142.0157  142.1760  164.7096 N.pl3   1  UNL1       -0.3038
      2 C         141.7590  142.1741  166.1875 C.ar    1  UNL1        0.0490
      3 C         140.3514  142.1319  166.7041 C.ar    1  UNL1        0.0153
      4 C         140.0946  142.1300  168.1820 C.ar    1  UNL1        0.0124
      5 C         141.2454  142.1703  169.1432 C.ar    1  UNL1        0.0791
      6 C         142.6531  142.2125  168.6266 C.ar    1  UNL1        0.0685
      7 CL        143.8039  142.2528  169.5878 Cl      1  UNL1       -0.0815
      8 C         142.9098  142.2144  167.1487 C.ar    1  UNL1        0.0266
      9 C         140.9886  142.1684  170.6210 C.1     1  UNL1        0.1013
     10 N         140.7319  142.1665  172.0989 N.1     1  UNL1       -0.1908
     11 C         139.7509  145.8958  161.7239 C.3     1  UNL1        0.0897
     12 N         140.7554  145.1371  162.5395 N.3     1  UNL1       -0.2700
     13 C         142.1626  145.5684  162.8292 C.3     1  UNL1        0.0739
     14 C         142.8060  144.5117  163.6774 C.3     1  UNL1        0.0385
     15 C         141.7964  143.4273  163.9119 C.3     1  UNL1        0.0904
     16 C         140.5291  143.8138  163.2086 C.3     1  UNL1        0.0921
     17 C         142.4918  140.9268  164.0295 C.3     1  UNL1        0.1176
     18 C         141.5558  139.7689  163.8470 C.ar    1  UNL1        0.0015
     19 C         140.6099  139.7453  162.6832 C.ar    1  UNL1       -0.0027
     20 C         139.6739  138.5874  162.5008 C.ar    1  UNL1       -0.0003
     21 C         139.6839  137.4531  163.4822 C.ar    1  UNL1       -0.0001
     22 C         140.6299  137.4767  164.6461 C.ar    1  UNL1        0.0036
     23 C         141.5659  138.6345  164.8285 C.ar    1  UNL1        0.0691
     24 C         142.5118  138.6581  165.9924 C.3     1  UNL1        0.4183
     25 F         143.4577  138.6817  167.1562 F       1  UNL1       -0.1659
     26 F         143.6317  138.2307  165.0908 F       1  UNL1       -0.1659
     27 F         141.3918  139.0856  166.8940 F       1  UNL1       -0.1659
@<TRIPOS>BOND
     1    11    12    1
     2    12    13    1
     3    13    14    1
     4    14    15    1
     5    15     1    1
     6     1    17    1
     7    17    18    1
     8    18    19   ar
     9    19    20   ar
    10    20    21   ar
    11    21    22   ar
    12    22    23   ar
    13    23    24    1
    14    24    25    1
    15    24    26    1
    16    24    27    1
    17     1     2    1
    18     2     3   ar
    19     3     4   ar
    20     4     5   ar
    21     5     9    1
    22     9    10    3
    23     5     6   ar
    24     6     7    1
    25     6     8   ar
    26    15    16    1
    27    16    12    1
    28    23    18   ar
    29     8     2   ar
@<TRIPOS>MOLECULE
*****
 27 29 0 0 0
SMALL
GASTEIGER

@<TRIPOS>ATOM
      1 N         141.3784  140.4397  164.8295 N.pl3   1  UNL1       -0.3038
      2 C         141.2219  140.7647  166.2855 C.ar    1  UNL1        0.0490
      3 C         139.9175  140.4999  166.9771 C.ar    1  UNL1        0.0153
      4 C         139.7610  140.8249  168.4330 C.ar    1  UNL1        0.0124
      5 C         140.9089  141.4147  169.1974 C.ar    1  UNL1        0.0791
      6 C         142.2134  141.6796  168.5059 C.ar    1  UNL1        0.0685
      7 CL        143.3613  142.2695  169.2703 Cl      1  UNL1       -0.0815
      8 C         142.3699  141.3546  167.0499 C.ar    1  UNL1        0.0266
      9 C         140.7524  141.7397  170.6534 C.1     1  UNL1        0.1013
     10 N         140.5959  142.0647  172.1094 N.1     1  UNL1       -0.1908
     11 C         137.6515  138.4103  161.6876 C.3     1  UNL1        0.0897
     12 N         138.7248  138.5414  162.7271 N.3     1  UNL1       -0.2700
     13 C         139.2565  137.4353  163.5897 C.3     1  UNL1        0.0739
     14 C         140.3153  138.0119  164.4823 C.3     1  UNL1        0.0385
     15 C         140.4379  139.4742  164.1713 C.3     1  UNL1        0.0904
     16 C         139.4550  139.8014  163.0865 C.3     1  UNL1        0.0921
     17 C         142.4754  141.0802  164.0318 C.3     1  UNL1        0.1176
     18 C         142.4932  142.5678  163.8404 C.ar    1  UNL1        0.0015
     19 C         141.2156  143.3496  163.9201 C.ar    1  UNL1       -0.0027
     20 C         141.2334  144.8372  163.7287 C.ar    1  UNL1       -0.0003
     21 C         142.5289  145.5431  163.4577 C.ar    1  UNL1       -0.0001
     22 C         143.8066  144.7613  163.3780 C.ar    1  UNL1        0.0036
     23 C         143.7888  143.2736  163.5694 C.ar    1  UNL1        0.0691
     24 C         145.0664  142.4919  163.4897 C.3     1  UNL1        0.4183
     25 F         146.3441  141.7101  163.4100 F       1  UNL1       -0.1659
     26 F         144.8366  142.2655  162.0248 F       1  UNL1       -0.1659
     27 F         145.2963  142.7182  164.9546 F       1  UNL1       -0.1659
@<TRIPOS>BOND
     1    11    12    1
     2    12    13    1
     3    13    14    1
     4    14    15    1
     5    15     1    1
     6     1    17    1
     7    17    18    1
     8    18    19   ar
     9    19    20   ar
    10    20    21   ar
    11    21    22   ar
    12    22    23   ar
    13    23    24    1
    14    24    25    1
    15    24    26    1
    16    24    27    1
    17     1     2    1
    18     2     3   ar
    19     3     4   ar
    20     4     5   ar
    21     5     9    1
    22     9    10    3
    23     5     6   ar
    24     6     7    1
    25     6     8   ar
    26    15    16    1
    27    16    12    1
    28    23    18   ar
    29     8     2   ar
@<TRIPOS>MOLECULE
*****
 27 29 0 0 0
SMALL
GASTEIGER

@<TRIPOS>ATOM
      1 N         140.5079  141.9308  164.6878 N.pl3   1  UNL1       -0.3038
      2 C         140.5154  141.7205  166.1730 C.ar    1  UNL1        0.0490
      3 C         140.5463  140.3295  166.7334 C.ar    1  UNL1        0.0153
      4 C         140.5538  140.1192  168.2186 C.ar    1  UNL1        0.0124
      5 C         140.5304  141.3000  169.1434 C.ar    1  UNL1        0.0791
      6 C         140.4995  142.6911  168.5830 C.ar    1  UNL1        0.0685
      7 CL        140.4760  143.8718  169.5078 Cl      1  UNL1       -0.0815
      8 C         140.4920  142.9013  167.0978 C.ar    1  UNL1        0.0266
      9 C         140.5379  141.0897  170.6285 C.1     1  UNL1        0.1013
     10 N         140.5454  140.8794  172.1137 N.1     1  UNL1       -0.1908
     11 C         137.5604  139.4000  161.1118 C.3     1  UNL1        0.0897
     12 N         137.9808  140.3098  162.2278 N.3     1  UNL1       -0.2700
     13 C         137.0827  141.2278  163.0028 C.3     1  UNL1        0.0739
     14 C         137.9200  141.9468  164.0187 C.3     1  UNL1        0.0385
     15 C         139.3357  141.4731  163.8715 C.3     1  UNL1        0.0904
     16 C         139.3732  140.4614  162.7646 C.3     1  UNL1        0.0921
     17 C         141.6726  142.5987  164.0190 C.3     1  UNL1        0.1176
     18 C         143.0150  141.9295  164.0062 C.ar    1  UNL1        0.0015
     19 C         143.1181  140.4509  164.2366 C.ar    1  UNL1       -0.0027
     20 C         144.4605  139.7817  164.2238 C.ar    1  UNL1       -0.0003
     21 C         145.6997  140.5911  163.9806 C.ar    1  UNL1       -0.0001
     22 C         145.5966  142.0697  163.7502 C.ar    1  UNL1        0.0036
     23 C         144.2542  142.7390  163.7630 C.ar    1  UNL1        0.0691
     24 C         144.1511  144.2175  163.5326 C.3     1  UNL1        0.4183
     25 F         144.0479  145.6961  163.3022 F       1  UNL1       -0.1659
     26 F         144.3137  144.4582  165.0042 F       1  UNL1       -0.1659
     27 F         143.9885  143.9769  162.0610 F       1  UNL1       -0.1659
@<TRIPOS>BOND
     1    11    12    1
     2    12    13    1
     3    13    14    1
     4    14    15    1
     5    15     1    1
     6     1    17    1
     7    17    18    1
     8    18    19   ar
     9    19    20   ar
    10    20    21   ar
    11    21    22   ar
    12    22    23   ar
    13    23    24    1
    14    24    25    1
    15    24    26    1
    16    24    27    1
    17     1     2    1
    18     2     3   ar
    19     3     4   ar
    20     4     5   ar
    21     5     9    1
    22     9    10    3
    23     5     6   ar
    24     6     7    1
    25     6     8   ar
    26    15    16    1
    27    16    12    1
    28    23    18   ar
    29     8     2   ar
@<TRIPOS>MOLECULE
*****
 27 29 0 0 0
SMALL
GASTEIGER

@<TRIPOS>ATOM
      1 N         140.4066  141.5694  164.5746 N.pl3   1  UNL1       -0.3038
      2 C         140.4472  141.4547  166.0696 C.ar    1  UNL1        0.0490
      3 C         140.5284  140.1037  166.7163 C.ar    1  UNL1        0.0153
      4 C         140.5690  139.9890  168.2113 C.ar    1  UNL1        0.0124
      5 C         140.5284  141.2253  169.0597 C.ar    1  UNL1        0.0791
      6 C         140.4472  142.5764  168.4131 C.ar    1  UNL1        0.0685
      7 CL        140.4067  143.8126  169.2616 Cl      1  UNL1       -0.0815
      8 C         140.4067  142.6911  166.9181 C.ar    1  UNL1        0.0266
      9 C         140.5690  141.1106  170.5548 C.1     1  UNL1        0.1013
     10 N         140.6096  140.9958  172.0499 N.1     1  UNL1       -0.1908
     11 C         139.6313  146.0747  161.9323 C.3     1  UNL1        0.0897
     12 N         139.3841  144.8200  162.7162 N.3     1  UNL1       -0.2700
     13 C         138.0467  144.3090  163.1637 C.3     1  UNL1        0.0739
     14 C         138.2669  143.0291  163.9143 C.3     1  UNL1        0.0385
     15 C         139.7405  142.7491  163.9307 C.3     1  UNL1        0.0904
     16 C         140.4309  143.8559  163.1902 C.3     1  UNL1        0.0921
     17 C         141.0321  140.5044  163.7234 C.3     1  UNL1        0.1176
     18 C         140.3326  140.0265  162.4856 C.ar    1  UNL1        0.0015
     19 C         140.7032  140.5950  161.1479 C.ar    1  UNL1       -0.0027
     20 C         140.0036  140.1171  159.9100 C.ar    1  UNL1       -0.0003
     21 C         138.9335  139.0708  160.0098 C.ar    1  UNL1       -0.0001
     22 C         138.5629  138.5022  161.3476 C.ar    1  UNL1        0.0036
     23 C         139.2624  138.9801  162.5855 C.ar    1  UNL1        0.0691
     24 C         138.8919  138.4117  163.9232 C.3     1  UNL1        0.4183
     25 F         138.5213  137.8432  165.2609 F       1  UNL1       -0.1659
     26 F         137.9519  139.5584  164.1500 F       1  UNL1       -0.1659
     27 F         139.8318  137.2650  163.6963 F       1  UNL1       -0.1659
@<TRIPOS>BOND
     1    11    12    1
     2    12    13    1
     3    13    14    1
     4    14    15    1
     5    15     1    1
     6     1    17    1
     7    17    18    1
     8    18    19   ar
     9    19    20   ar
    10    20    21   ar
    11    21    22   ar
    12    22    23   ar
    13    23    24    1
    14    24    25    1
    15    24    26    1
    16    24    27    1
    17     1     2    1
    18     2     3   ar
    19     3     4   ar
    20     4     5   ar
    21     5     9    1
    22     9    10    3
    23     5     6   ar
    24     6     7    1
    25     6     8   ar
    26    15    16    1
    27    16    12    1
    28    23    18   ar
    29     8     2   ar
@<TRIPOS>MOLECULE
*****
 27 29 0 0 0
SMALL
GASTEIGER

@<TRIPOS>ATOM
      1 N         139.5398  141.3097  163.6568 N.pl3   1  UNL1       -0.3038
      2 C         139.5419  140.9790  165.1199 C.ar    1  UNL1        0.0490
      3 C         140.4903  141.6808  166.0461 C.ar    1  UNL1        0.0153
      4 C         140.4924  141.3501  167.5092 C.ar    1  UNL1        0.0124
      5 C         139.5461  140.3176  168.0461 C.ar    1  UNL1        0.0791
      6 C         138.5976  139.6157  167.1199 C.ar    1  UNL1        0.0685
      7 CL        137.6512  138.5831  167.6567 Cl      1  UNL1       -0.0815
      8 C         138.5955  139.9464  165.6568 C.ar    1  UNL1        0.0266
      9 C         139.5481  139.9869  169.5092 C.1     1  UNL1        0.1013
     10 N         139.5502  139.6562  170.9723 N.1     1  UNL1       -0.1908
     11 C         139.6832  146.1454  161.5413 C.3     1  UNL1        0.0897
     12 N         139.1992  144.9015  162.2255 N.3     1  UNL1       -0.2700
     13 C         137.8162  144.6694  162.7581 C.3     1  UNL1        0.0739
     14 C         137.7755  143.2955  163.3591 C.3     1  UNL1        0.0385
     15 C         139.1333  142.6787  163.1979 C.3     1  UNL1        0.0904
     16 C         140.0132  143.6712  162.4974 C.3     1  UNL1        0.0921
     17 C         139.9443  140.2714  162.6527 C.3     1  UNL1        0.1176
     18 C         141.3972  139.9867  162.4118 C.ar    1  UNL1        0.0015
     19 C         142.1972  140.8802  161.5110 C.ar    1  UNL1       -0.0027
     20 C         143.6502  140.5955  161.2702 C.ar    1  UNL1       -0.0003
     21 C         144.3030  139.4173  161.9302 C.ar    1  UNL1       -0.0001
     22 C         143.5029  138.5238  162.8311 C.ar    1  UNL1        0.0036
     23 C         142.0500  138.8085  163.0719 C.ar    1  UNL1        0.0691
     24 C         141.2499  137.9150  163.9728 C.3     1  UNL1        0.4183
     25 F         140.4499  137.0215  164.8736 F       1  UNL1       -0.1659
     26 F         140.7789  137.1353  162.7811 F       1  UNL1       -0.1659
     27 F         141.7210  138.6947  165.1644 F       1  UNL1       -0.1659
@<TRIPOS>BOND
     1    11    12    1
     2    12    13    1
     3    13    14    1
     4    14    15    1
     5    15     1    1
     6     1    17    1
     7    17    18    1
     8    18    19   ar
     9    19    20   ar
    10    20    21   ar
    11    21    22   ar
    12    22    23   ar
    13    23    24    1
    14    24    25    1
    15    24    26    1
    16    24    27    1
    17     1     2    1
    18     2     3   ar
    19     3     4   ar
    20     4     5   ar
    21     5     9    1
    22     9    10    3
    23     5     6   ar
    24     6     7    1
    25     6     8   ar
    26    15    16    1
    27    16    12    1
    28    23    18   ar
    29     8     2   ar
