@<TRIPOS>MOLECULE
*****
 33 35 0 0 0
SMALL
GASTEIGER

@<TRIPOS>ATOM
      1 C         139.4016  137.9822  162.8124 C.3     1  UNL1        0.1154
      2 C         138.6090  138.6399  161.7219 C.3     1  UNL1        0.0332
      3 C         139.2624  138.9651  160.4115 C.3     1  UNL1        0.0461
      4 C         140.7085  138.6326  160.1915 C.3     1  UNL1        0.1678
      5 C         141.5011  137.9749  161.2820 C.3     1  UNL1        0.0461
      6 C         140.8477  137.6497  162.5925 C.3     1  UNL1        0.0332
      7 O         138.7482  137.6570  164.1229 O.3     1  UNL1       -0.3586
      8 C         139.8219  141.0702  168.9392 C.2     1  UNL1        0.4050
      9 O         138.9255  140.9785  170.1384 O.2     1  UNL1       -0.2262
     10 N         139.5535  140.2169  167.7352 N.am    1  UNL1       -0.2459
     11 C         140.4499  140.3086  166.5360 C.3     1  UNL1        0.0992
     12 C         140.1815  139.4553  165.3319 C.3     1  UNL1        0.0512
     13 C         139.0166  138.5103  165.3270 C.3     1  UNL1        0.1185
     14 C         138.1202  138.4186  166.5261 C.3     1  UNL1        0.0512
     15 C         138.3886  139.2719  167.7302 C.3     1  UNL1        0.0992
     16 O         140.9868  142.0151  168.9442 O.3     1  UNL1       -0.4294
     17 C         143.0921  142.8049  170.2457 C.3     1  UNL1        0.0567
     18 C         142.2071  141.6970  169.7563 C.3     1  UNL1        0.2645
     19 C         142.5426  140.2711  170.0790 C.3     1  UNL1        0.4342
     20 F         142.8780  138.8452  170.4017 F       1  UNL1       -0.1664
     21 F         142.0593  140.4754  171.4842 F       1  UNL1       -0.1664
     22 F         143.0258  140.0668  168.6738 F       1  UNL1       -0.1664
     23 O         141.3619  138.9578  158.8810 O.3     1  UNL1       -0.4630
     24 C         141.5468  137.8855  157.8486 C.ar    1  UNL1        0.2447
     25 C         140.4140  137.5200  156.9357 C.ar    1  UNL1        0.1579
     26 N         140.5988  136.4477  155.9033 N.ar    1  UNL1       -0.2195
     27 C         141.9164  135.7408  155.7837 C.ar    1  UNL1        0.2058
     28 C         143.0492  136.1062  156.6966 C.ar    1  UNL1        0.1399
     29 N         142.8643  137.1786  157.7291 N.ar    1  UNL1       -0.2058
     30 S         142.1013  134.6684  154.7513 S.O2    1  UNL1        0.0283
     31 C         142.2861  133.5961  153.7189 C.3     1  UNL1        0.1835
     32 O         141.6329  133.6390  155.7367 O.2     1  UNL1       -0.1671
     33 O         142.5696  135.6978  153.7660 O.2     1  UNL1       -0.1671
@<TRIPOS>BOND
     1    18    17    1
     2    18    16    1
     3    16     8    1
     4     8     9    2
     5     8    10   am
     6    10    11    1
     7    11    12    1
     8    12    13    1
     9    13     7    1
    10     1     7    1
    11     1     2    1
    12     2     3    1
    13     3     4    1
    14     4    23    1
    15    23    24    1
    16    24    25   ar
    17    25    26   ar
    18    26    27   ar
    19    27    30    1
    20    30    31    1
    21    30    32    2
    22    30    33    2
    23    27    28   ar
    24    28    29   ar
    25     4     5    1
    26     5     6    1
    27    13    14    1
    28    14    15    1
    29    18    19    1
    30    19    20    1
    31    19    21    1
    32    19    22    1
    33    15    10    1
    34     6     1    1
    35    29    24   ar
@<TRIPOS>MOLECULE
*****
 33 35 0 0 0
SMALL
GASTEIGER

@<TRIPOS>ATOM
      1 C         144.0120  139.2919  161.8701 C.3     1  UNL1        0.1154
      2 C         142.9347  138.2508  161.7951 C.3     1  UNL1        0.0332
      3 C         142.1968  138.0264  160.5086 C.3     1  UNL1        0.0461
      4 C         142.5363  138.8430  159.2970 C.3     1  UNL1        0.1678
      5 C         143.6136  139.8841  159.3719 C.3     1  UNL1        0.0461
      6 C         144.3515  140.1085  160.6585 C.3     1  UNL1        0.0332
      7 O         144.7499  139.5163  163.1566 O.3     1  UNL1       -0.3586
      8 C         141.7151  140.7976  168.1714 C.2     1  UNL1        0.4050
      9 O         141.4539  139.7234  169.1851 O.2     1  UNL1       -0.2262
     10 N         142.4738  140.4773  166.9177 N.am    1  UNL1       -0.2459
     11 C         142.7351  141.5515  165.9040 C.3     1  UNL1        0.0992
     12 C         143.4938  141.2312  164.6503 C.3     1  UNL1        0.0512
     13 C         143.9912  139.8366  164.4103 C.3     1  UNL1        0.1185
     14 C         143.7299  138.7624  165.4240 C.3     1  UNL1        0.0512
     15 C         142.9713  139.0827  166.6777 C.3     1  UNL1        0.0992
     16 O         141.2177  142.1922  168.4114 O.3     1  UNL1       -0.4294
     17 C         142.7397  143.0712  170.3247 C.3     1  UNL1        0.0567
     18 C         141.3709  142.8206  169.7648 C.3     1  UNL1        0.2645
     19 C         140.1553  143.1985  170.5581 C.3     1  UNL1        0.4342
     20 F         138.9397  143.5764  171.3515 F       1  UNL1       -0.1664
     21 F         140.0661  141.7983  171.0885 F       1  UNL1       -0.1664
     22 F         140.2444  144.5988  170.0278 F       1  UNL1       -0.1664
     23 O         141.7984  138.6186  158.0104 O.3     1  UNL1       -0.4630
     24 C         141.9345  137.3124  157.2857 C.ar    1  UNL1        0.2447
     25 C         140.9109  136.9104  156.2656 C.ar    1  UNL1        0.1579
     26 N         141.0471  135.6041  155.5409 N.ar    1  UNL1       -0.2195
     27 C         142.2069  134.6998  155.8364 C.ar    1  UNL1        0.2058
     28 C         143.2305  135.1018  156.8566 C.ar    1  UNL1        0.1399
     29 N         143.0942  136.4081  157.5812 N.ar    1  UNL1       -0.2058
     30 S         142.3430  133.3936  155.1117 S.O2    1  UNL1        0.0283
     31 C         142.4792  132.0874  154.3871 C.3     1  UNL1        0.1835
     32 O         142.2085  132.6582  156.4121 O.2     1  UNL1       -0.1671
     33 O         142.4775  134.1290  153.8114 O.2     1  UNL1       -0.1671
@<TRIPOS>BOND
     1    18    17    1
     2    18    16    1
     3    16     8    1
     4     8     9    2
     5     8    10   am
     6    10    11    1
     7    11    12    1
     8    12    13    1
     9    13     7    1
    10     1     7    1
    11     1     2    1
    12     2     3    1
    13     3     4    1
    14     4    23    1
    15    23    24    1
    16    24    25   ar
    17    25    26   ar
    18    26    27   ar
    19    27    30    1
    20    30    31    1
    21    30    32    2
    22    30    33    2
    23    27    28   ar
    24    28    29   ar
    25     4     5    1
    26     5     6    1
    27    13    14    1
    28    14    15    1
    29    18    19    1
    30    19    20    1
    31    19    21    1
    32    19    22    1
    33    15    10    1
    34     6     1    1
    35    29    24   ar
@<TRIPOS>MOLECULE
*****
 33 35 0 0 0
SMALL
GASTEIGER

@<TRIPOS>ATOM
      1 C         140.3550  139.3277  160.6144 C.3     1  UNL1        0.1154
      2 C         139.2460  140.2543  161.0163 C.3     1  UNL1        0.0332
      3 C         138.4842  140.0066  162.2845 C.3     1  UNL1        0.0461
      4 C         138.8314  138.8323  163.1508 C.3     1  UNL1        0.1678
      5 C         139.9404  137.9057  162.7488 C.3     1  UNL1        0.0461
      6 C         140.7022  138.1534  161.4806 C.3     1  UNL1        0.0332
      7 O         141.1168  139.5754  159.3462 O.3     1  UNL1       -0.3586
      8 C         142.1489  135.0575  155.5352 C.2     1  UNL1        0.4050
      9 O         141.1001  134.6630  154.5381 O.2     1  UNL1       -0.2262
     10 N         141.8908  136.1870  156.4880 N.am    1  UNL1       -0.2459
     11 C         142.9396  136.5815  157.4851 C.3     1  UNL1        0.0992
     12 C         142.6816  137.7110  158.4379 C.3     1  UNL1        0.0512
     13 C         141.3748  138.4459  158.3934 C.3     1  UNL1        0.1185
     14 C         140.3260  138.0514  157.3963 C.3     1  UNL1        0.0512
     15 C         140.5840  136.9220  156.4435 C.3     1  UNL1        0.0992
     16 O         143.4557  134.3225  155.5796 O.3     1  UNL1       -0.4294
     17 C         142.4350  131.9591  155.9298 C.3     1  UNL1        0.0567
     18 C         143.5264  132.9546  156.1909 C.3     1  UNL1        0.2645
     19 C         144.6884  132.5820  157.0632 C.3     1  UNL1        0.4342
     20 F         145.8504  132.2095  157.9355 F       1  UNL1       -0.1664
     21 F         144.3640  133.7223  157.9822 F       1  UNL1       -0.1664
     22 F         145.0127  131.4418  156.1442 F       1  UNL1       -0.1664
     23 O         138.0696  138.5846  164.4190 O.3     1  UNL1       -0.4630
     24 C         138.5867  139.1200  165.7213 C.ar    1  UNL1        0.2447
     25 C         137.9233  138.7300  167.0088 C.ar    1  UNL1        0.1579
     26 N         138.4404  139.2654  168.3111 N.ar    1  UNL1       -0.2195
     27 C         139.6209  140.1908  168.3258 C.ar    1  UNL1        0.2058
     28 C         140.2843  140.5807  167.0382 C.ar    1  UNL1        0.1399
     29 N         139.7671  140.0453  165.7359 N.ar    1  UNL1       -0.2058
     30 S         140.1380  140.7262  169.6281 S.O2    1  UNL1        0.0283
     31 C         140.6551  141.2615  170.9304 C.3     1  UNL1        0.1835
     32 O         139.1339  139.8938  170.3690 O.2     1  UNL1       -0.1671
     33 O         141.1421  141.5585  168.8872 O.2     1  UNL1       -0.1671
@<TRIPOS>BOND
     1    18    17    1
     2    18    16    1
     3    16     8    1
     4     8     9    2
     5     8    10   am
     6    10    11    1
     7    11    12    1
     8    12    13    1
     9    13     7    1
    10     1     7    1
    11     1     2    1
    12     2     3    1
    13     3     4    1
    14     4    23    1
    15    23    24    1
    16    24    25   ar
    17    25    26   ar
    18    26    27   ar
    19    27    30    1
    20    30    31    1
    21    30    32    2
    22    30    33    2
    23    27    28   ar
    24    28    29   ar
    25     4     5    1
    26     5     6    1
    27    13    14    1
    28    14    15    1
    29    18    19    1
    30    19    20    1
    31    19    21    1
    32    19    22    1
    33    15    10    1
    34     6     1    1
    35    29    24   ar
@<TRIPOS>MOLECULE
*****
 33 35 0 0 0
SMALL
GASTEIGER

@<TRIPOS>ATOM
      1 C         139.7327  138.7056  157.9648 C.3     1  UNL1        0.1154
      2 C         141.0383  138.7425  158.7024 C.3     1  UNL1        0.0332
      3 C         142.1998  137.9296  158.2123 C.3     1  UNL1        0.0461
      4 C         142.0557  137.0800  156.9846 C.3     1  UNL1        0.1678
      5 C         140.7502  137.0431  156.2470 C.3     1  UNL1        0.0461
      6 C         139.5886  137.8559  156.7371 C.3     1  UNL1        0.0332
      7 O         138.5712  139.5184  158.4549 O.3     1  UNL1       -0.3586
      8 C         138.3302  141.2496  164.1946 C.2     1  UNL1        0.4050
      9 O         138.7707  142.6306  164.5806 O.2     1  UNL1       -0.2262
     10 N         138.3905  140.8168  162.7597 N.am    1  UNL1       -0.2459
     11 C         137.9500  139.4359  162.3737 C.3     1  UNL1        0.0992
     12 C         138.0102  139.0031  160.9387 C.3     1  UNL1        0.0512
     13 C         138.5109  139.9512  159.8898 C.3     1  UNL1        0.1185
     14 C         138.9514  141.3321  160.2758 C.3     1  UNL1        0.0512
     15 C         138.8911  141.7650  161.7107 C.3     1  UNL1        0.0992
     16 O         137.8295  140.3015  165.2436 O.3     1  UNL1       -0.4294
     17 C         140.2133  139.4132  165.7714 C.3     1  UNL1        0.0567
     18 C         138.7261  139.2175  165.7642 C.3     1  UNL1        0.2645
     19 C         138.1355  137.9379  166.2777 C.3     1  UNL1        0.4342
     20 F         137.5449  136.6582  166.7911 F       1  UNL1       -0.1664
     21 F         138.8705  137.1731  165.2171 F       1  UNL1       -0.1664
     22 F         137.4005  138.7026  167.3382 F       1  UNL1       -0.1664
     23 O         143.2173  136.2671  156.4946 O.3     1  UNL1       -0.4630
     24 C         143.1604  134.7692  156.5485 C.ar    1  UNL1        0.2447
     25 C         142.2015  134.0229  155.6690 C.ar    1  UNL1        0.1579
     26 N         142.1446  132.5250  155.7229 N.ar    1  UNL1       -0.2195
     27 C         143.0466  131.7733  156.6565 C.ar    1  UNL1        0.2058
     28 C         144.0055  132.5196  157.5360 C.ar    1  UNL1        0.1399
     29 N         144.0624  134.0176  157.4820 N.ar    1  UNL1       -0.2058
     30 S         142.9897  130.2754  156.7105 S.O2    1  UNL1        0.0283
     31 C         142.9328  128.7774  156.7644 C.3     1  UNL1        0.1835
     32 O         141.8910  130.2803  155.6893 O.2     1  UNL1       -0.1671
     33 O         144.0885  130.2704  157.7316 O.2     1  UNL1       -0.1671
@<TRIPOS>BOND
     1    18    17    1
     2    18    16    1
     3    16     8    1
     4     8     9    2
     5     8    10   am
     6    10    11    1
     7    11    12    1
     8    12    13    1
     9    13     7    1
    10     1     7    1
    11     1     2    1
    12     2     3    1
    13     3     4    1
    14     4    23    1
    15    23    24    1
    16    24    25   ar
    17    25    26   ar
    18    26    27   ar
    19    27    30    1
    20    30    31    1
    21    30    32    2
    22    30    33    2
    23    27    28   ar
    24    28    29   ar
    25     4     5    1
    26     5     6    1
    27    13    14    1
    28    14    15    1
    29    18    19    1
    30    19    20    1
    31    19    21    1
    32    19    22    1
    33    15    10    1
    34     6     1    1
    35    29    24   ar
@<TRIPOS>MOLECULE
*****
 33 35 0 0 0
SMALL
GASTEIGER

@<TRIPOS>ATOM
      1 C         143.9679  139.1035  161.8731 C.3     1  UNL1        0.1154
      2 C         144.0812  140.3451  161.0389 C.3     1  UNL1        0.0332
      3 C         143.6727  140.3191  159.5959 C.3     1  UNL1        0.0461
      4 C         143.1508  139.0515  158.9869 C.3     1  UNL1        0.1678
      5 C         143.0375  137.8099  159.8210 C.3     1  UNL1        0.0461
      6 C         143.4461  137.8359  161.2641 C.3     1  UNL1        0.0332
      7 O         144.3765  139.1296  163.3161 O.3     1  UNL1       -0.3586
      8 C         140.4763  140.9270  167.5063 C.2     1  UNL1        0.4050
      9 O         139.5487  139.9347  168.1425 O.2     1  UNL1       -0.2262
     10 N         141.4514  140.4777  166.4587 N.am    1  UNL1       -0.2459
     11 C         142.3790  141.4700  165.8225 C.3     1  UNL1        0.0992
     12 C         143.3540  141.0206  164.7750 C.3     1  UNL1        0.0512
     13 C         143.4014  139.5790  164.3636 C.3     1  UNL1        0.1185
     14 C         142.4739  138.5866  164.9999 C.3     1  UNL1        0.0512
     15 C         141.4988  139.0360  166.0474 C.3     1  UNL1        0.0992
     16 O         140.4289  142.3687  167.9176 O.3     1  UNL1       -0.4294
     17 C         140.5315  143.9561  169.9718 C.3     1  UNL1        0.0567
     18 C         141.0955  142.8087  169.1873 C.3     1  UNL1        0.2645
     19 C         142.3261  142.1015  169.6723 C.3     1  UNL1        0.4342
     20 F         143.5567  141.3942  170.1574 F       1  UNL1       -0.1664
     21 F         141.5118  141.4041  170.7214 F       1  UNL1       -0.1664
     22 F         143.1404  142.7988  168.6233 F       1  UNL1       -0.1664
     23 O         142.7423  139.0255  157.5438 O.3     1  UNL1       -0.4630
     24 C         142.5663  137.7139  156.8377 C.ar    1  UNL1        0.2447
     25 C         141.1886  137.1798  156.5797 C.ar    1  UNL1        0.1579
     26 N         141.0126  135.8682  155.8736 N.ar    1  UNL1       -0.2195
     27 C         142.2145  135.0906  155.4253 C.ar    1  UNL1        0.2058
     28 C         143.5923  135.6246  155.6833 C.ar    1  UNL1        0.1399
     29 N         143.7682  136.9363  156.3895 N.ar    1  UNL1       -0.2058
     30 S         142.0386  133.7790  154.7192 S.O2    1  UNL1        0.0283
     31 C         141.8626  132.4674  154.0131 C.3     1  UNL1        0.1835
     32 O         142.3163  134.4487  153.4061 O.2     1  UNL1       -0.1671
     33 O         141.7609  133.1093  156.0323 O.2     1  UNL1       -0.1671
@<TRIPOS>BOND
     1    18    17    1
     2    18    16    1
     3    16     8    1
     4     8     9    2
     5     8    10   am
     6    10    11    1
     7    11    12    1
     8    12    13    1
     9    13     7    1
    10     1     7    1
    11     1     2    1
    12     2     3    1
    13     3     4    1
    14     4    23    1
    15    23    24    1
    16    24    25   ar
    17    25    26   ar
    18    26    27   ar
    19    27    30    1
    20    30    31    1
    21    30    32    2
    22    30    33    2
    23    27    28   ar
    24    28    29   ar
    25     4     5    1
    26     5     6    1
    27    13    14    1
    28    14    15    1
    29    18    19    1
    30    19    20    1
    31    19    21    1
    32    19    22    1
    33    15    10    1
    34     6     1    1
    35    29    24   ar
@<TRIPOS>MOLECULE
*****
 33 35 0 0 0
SMALL
GASTEIGER

@<TRIPOS>ATOM
      1 C         137.9186  141.9435  161.9923 C.3     1  UNL1        0.1154
      2 C         138.3753  142.7510  160.8135 C.3     1  UNL1        0.0332
      3 C         138.4337  142.1238  159.4522 C.3     1  UNL1        0.0461
      4 C         138.0354  140.6893  159.2696 C.3     1  UNL1        0.1678
      5 C         137.5786  139.8818  160.4483 C.3     1  UNL1        0.0461
      6 C         137.5202  140.5090  161.8097 C.3     1  UNL1        0.0332
      7 O         137.8602  142.5706  163.3537 O.3     1  UNL1       -0.3586
      8 C         142.5486  142.1156  167.0700 C.2     1  UNL1        0.4050
      9 O         143.7434  143.0028  166.8822 O.2     1  UNL1       -0.2262
     10 N         141.3765  142.2294  166.1409 N.am    1  UNL1       -0.2459
     11 C         140.1817  141.3421  166.3287 C.3     1  UNL1        0.0992
     12 C         139.0096  141.4559  165.3996 C.3     1  UNL1        0.0512
     13 C         139.0323  142.4569  164.2827 C.3     1  UNL1        0.1185
     14 C         140.2271  143.3441  164.0949 C.3     1  UNL1        0.0512
     15 C         141.3992  143.2303  165.0240 C.3     1  UNL1        0.0992
     16 O         142.5260  141.1146  168.1869 O.3     1  UNL1       -0.4294
     17 C         142.2010  140.5706  170.7065 C.3     1  UNL1        0.0567
     18 C         142.0980  141.5346  169.5619 C.3     1  UNL1        0.2645
     19 C         141.5671  142.9184  169.7921 C.3     1  UNL1        0.4342
     20 F         141.0363  144.3023  170.0224 F       1  UNL1       -0.1664
     21 F         142.9328  143.3719  170.2153 F       1  UNL1       -0.1664
     22 F         140.2014  142.4649  169.3690 F       1  UNL1       -0.1664
     23 O         138.0938  140.0622  157.9082 O.3     1  UNL1       -0.4630
     24 C         139.2365  139.1605  157.5462 C.ar    1  UNL1        0.2447
     25 C         140.5873  139.3778  158.1612 C.ar    1  UNL1        0.1579
     26 N         141.7300  138.4761  157.7992 N.ar    1  UNL1       -0.2195
     27 C         141.5221  137.3571  156.8221 C.ar    1  UNL1        0.2058
     28 C         140.1713  137.1399  156.2070 C.ar    1  UNL1        0.1399
     29 N         139.0285  138.0416  156.5691 N.ar    1  UNL1       -0.2058
     30 S         142.6648  136.4555  156.4601 S.O2    1  UNL1        0.0283
     31 C         143.8076  135.5538  156.0981 C.3     1  UNL1        0.1835
     32 O         143.6268  137.4269  157.0772 O.2     1  UNL1       -0.1671
     33 O         141.7028  135.4840  155.8430 O.2     1  UNL1       -0.1671
@<TRIPOS>BOND
     1    18    17    1
     2    18    16    1
     3    16     8    1
     4     8     9    2
     5     8    10   am
     6    10    11    1
     7    11    12    1
     8    12    13    1
     9    13     7    1
    10     1     7    1
    11     1     2    1
    12     2     3    1
    13     3     4    1
    14     4    23    1
    15    23    24    1
    16    24    25   ar
    17    25    26   ar
    18    26    27   ar
    19    27    30    1
    20    30    31    1
    21    30    32    2
    22    30    33    2
    23    27    28   ar
    24    28    29   ar
    25     4     5    1
    26     5     6    1
    27    13    14    1
    28    14    15    1
    29    18    19    1
    30    19    20    1
    31    19    21    1
    32    19    22    1
    33    15    10    1
    34     6     1    1
    35    29    24   ar
@<TRIPOS>MOLECULE
*****
 33 35 0 0 0
SMALL
GASTEIGER

@<TRIPOS>ATOM
      1 C         138.5586  139.3164  161.1771 C.3     1  UNL1        0.1154
      2 C         138.1596  140.0841  159.9517 C.3     1  UNL1        0.0332
      3 C         138.9897  139.9922  158.7057 C.3     1  UNL1        0.0461
      4 C         140.2188  139.1326  158.6851 C.3     1  UNL1        0.1678
      5 C         140.6178  138.3649  159.9104 C.3     1  UNL1        0.0461
      6 C         139.7877  138.4568  161.1564 C.3     1  UNL1        0.0332
      7 O         137.7285  139.4082  162.4230 O.3     1  UNL1       -0.3586
      8 C         140.2686  141.0455  167.6064 C.2     1  UNL1        0.4050
      9 O         140.3752  140.0612  168.7332 O.2     1  UNL1       -0.2262
     10 N         139.6335  140.6362  166.3105 N.am    1  UNL1       -0.2459
     11 C         139.5268  141.6205  165.1837 C.3     1  UNL1        0.0992
     12 C         138.8918  141.2112  163.8879 C.3     1  UNL1        0.0512
     13 C         138.3635  139.8176  163.7188 C.3     1  UNL1        0.1185
     14 C         138.4702  138.8333  164.8456 C.3     1  UNL1        0.0512
     15 C         139.1052  139.2426  166.1415 C.3     1  UNL1        0.0992
     16 O         140.7969  142.4391  167.7754 O.3     1  UNL1       -0.4294
     17 C         140.4500  143.7180  170.0102 C.3     1  UNL1        0.0567
     18 C         141.3157  142.8879  169.1094 C.3     1  UNL1        0.2645
     19 C         142.7002  142.5065  169.5425 C.3     1  UNL1        0.4342
     20 F         144.0847  142.1251  169.9757 F       1  UNL1       -0.1664
     21 F         142.1808  142.1736  170.9097 F       1  UNL1       -0.1664
     22 F         143.2197  142.8394  168.1753 F       1  UNL1       -0.1664
     23 O         141.0490  139.0407  157.4391 O.3     1  UNL1       -0.4630
     24 C         141.5097  137.7027  156.9418 C.ar    1  UNL1        0.2447
     25 C         140.6171  136.8830  156.0579 C.ar    1  UNL1        0.1579
     26 N         141.0778  135.5450  155.5606 N.ar    1  UNL1       -0.2195
     27 C         142.4313  135.0266  155.9472 C.ar    1  UNL1        0.2058
     28 C         143.3240  135.8462  156.8311 C.ar    1  UNL1        0.1399
     29 N         142.8631  137.1843  157.3284 N.ar    1  UNL1       -0.2058
     30 S         142.8920  133.6885  155.4499 S.O2    1  UNL1        0.0283
     31 C         143.3528  132.3505  154.9527 C.3     1  UNL1        0.1835
     32 O         141.8435  133.7259  154.3780 O.2     1  UNL1       -0.1671
     33 O         143.9406  133.6512  156.5219 O.2     1  UNL1       -0.1671
@<TRIPOS>BOND
     1    18    17    1
     2    18    16    1
     3    16     8    1
     4     8     9    2
     5     8    10   am
     6    10    11    1
     7    11    12    1
     8    12    13    1
     9    13     7    1
    10     1     7    1
    11     1     2    1
    12     2     3    1
    13     3     4    1
    14     4    23    1
    15    23    24    1
    16    24    25   ar
    17    25    26   ar
    18    26    27   ar
    19    27    30    1
    20    30    31    1
    21    30    32    2
    22    30    33    2
    23    27    28   ar
    24    28    29   ar
    25     4     5    1
    26     5     6    1
    27    13    14    1
    28    14    15    1
    29    18    19    1
    30    19    20    1
    31    19    21    1
    32    19    22    1
    33    15    10    1
    34     6     1    1
    35    29    24   ar
@<TRIPOS>MOLECULE
*****
 33 35 0 0 0
SMALL
GASTEIGER

@<TRIPOS>ATOM
      1 C         139.9581  138.4435  158.1148 C.3     1  UNL1        0.1154
      2 C         139.9195  137.5995  156.8753 C.3     1  UNL1        0.0332
      3 C         141.1562  136.8867  156.4145 C.3     1  UNL1        0.0461
      4 C         142.4316  137.0179  157.1931 C.3     1  UNL1        0.1678
      5 C         142.4702  137.8619  158.4325 C.3     1  UNL1        0.0461
      6 C         141.2334  138.5747  158.8934 C.3     1  UNL1        0.0332
      7 O         138.7213  139.1562  158.5757 O.3     1  UNL1       -0.3586
      8 C         138.0866  140.6305  164.3570 C.2     1  UNL1        0.4050
      9 O         138.1299  139.5650  165.4118 O.2     1  UNL1       -0.2262
     10 N         138.2453  140.2620  162.9117 N.am    1  UNL1       -0.2459
     11 C         138.2021  141.3275  161.8568 C.3     1  UNL1        0.0992
     12 C         138.3607  140.9589  160.4115 C.3     1  UNL1        0.0512
     13 C         138.5626  139.5248  160.0210 C.3     1  UNL1        0.1185
     14 C         138.6059  138.4593  161.0758 C.3     1  UNL1        0.0512
     15 C         138.4472  138.8279  162.5212 C.3     1  UNL1        0.0992
     16 O         137.8847  142.0646  164.7475 O.3     1  UNL1       -0.4294
     17 C         140.0525  142.5079  166.1093 C.3     1  UNL1        0.0567
     18 C         139.0690  142.9311  165.0587 C.3     1  UNL1        0.2645
     19 C         139.2697  144.2207  164.3195 C.3     1  UNL1        0.4342
     20 F         139.4704  145.5103  163.5802 F       1  UNL1       -0.1664
     21 F         138.3651  144.9186  165.2913 F       1  UNL1       -0.1664
     22 F         140.1743  143.5228  163.3476 F       1  UNL1       -0.1664
     23 O         143.6684  136.3051  156.7322 O.3     1  UNL1       -0.4630
     24 C         143.6343  134.8255  156.4883 C.ar    1  UNL1        0.2447
     25 C         143.9345  133.8737  157.6081 C.ar    1  UNL1        0.1579
     26 N         143.9005  132.3941  157.3642 N.ar    1  UNL1       -0.2195
     27 C         143.5663  131.8662  156.0005 C.ar    1  UNL1        0.2058
     28 C         143.2661  132.8180  154.8807 C.ar    1  UNL1        0.1399
     29 N         143.3002  134.2977  155.1246 N.ar    1  UNL1       -0.2058
     30 S         143.5323  130.3866  155.7566 S.O2    1  UNL1        0.0283
     31 C         143.4983  128.9069  155.5127 C.3     1  UNL1        0.1835
     32 O         143.0220  130.1686  157.1502 O.2     1  UNL1       -0.1671
     33 O         144.0426  130.6045  154.3631 O.2     1  UNL1       -0.1671
@<TRIPOS>BOND
     1    18    17    1
     2    18    16    1
     3    16     8    1
     4     8     9    2
     5     8    10   am
     6    10    11    1
     7    11    12    1
     8    12    13    1
     9    13     7    1
    10     1     7    1
    11     1     2    1
    12     2     3    1
    13     3     4    1
    14     4    23    1
    15    23    24    1
    16    24    25   ar
    17    25    26   ar
    18    26    27   ar
    19    27    30    1
    20    30    31    1
    21    30    32    2
    22    30    33    2
    23    27    28   ar
    24    28    29   ar
    25     4     5    1
    26     5     6    1
    27    13    14    1
    28    14    15    1
    29    18    19    1
    30    19    20    1
    31    19    21    1
    32    19    22    1
    33    15    10    1
    34     6     1    1
    35    29    24   ar
@<TRIPOS>MOLECULE
*****
 33 35 0 0 0
SMALL
GASTEIGER

@<TRIPOS>ATOM
      1 C         140.4891  139.0888  158.5947 C.3     1  UNL1        0.1154
      2 C         141.9675  139.2623  158.7801 C.3     1  UNL1        0.0332
      3 C         142.9263  138.4314  157.9800 C.3     1  UNL1        0.0461
      4 C         142.4068  137.4270  156.9945 C.3     1  UNL1        0.1678
      5 C         140.9285  137.2534  156.8091 C.3     1  UNL1        0.0461
      6 C         139.9696  138.0844  157.6092 C.3     1  UNL1        0.0332
      7 O         139.5303  139.9197  159.3948 O.3     1  UNL1       -0.3586
      8 C         138.5953  138.6766  165.1897 C.2     1  UNL1        0.4050
      9 O         138.4223  137.2542  165.6332 O.2     1  UNL1       -0.2262
     10 N         138.8291  138.9874  163.7410 N.am    1  UNL1       -0.2459
     11 C         139.0021  140.4098  163.2975 C.3     1  UNL1        0.0992
     12 C         139.2359  140.7206  161.8488 C.3     1  UNL1        0.0512
     13 C         139.2966  139.6090  160.8435 C.3     1  UNL1        0.1185
     14 C         139.1235  138.1865  161.2870 C.3     1  UNL1        0.0512
     15 C         138.8898  137.8757  162.7357 C.3     1  UNL1        0.0992
     16 O         138.5346  139.7882  166.1949 O.3     1  UNL1       -0.4294
     17 C         141.0540  139.8513  166.8265 C.3     1  UNL1        0.0567
     18 C         139.6112  139.9223  167.2308 C.3     1  UNL1        0.2645
     19 C         139.2450  140.1274  168.6709 C.3     1  UNL1        0.4342
     20 F         138.8789  140.3324  170.1109 F       1  UNL1       -0.1664
     21 F         138.0218  139.2804  168.4804 F       1  UNL1       -0.1664
     22 F         140.4682  140.9744  168.8613 F       1  UNL1       -0.1664
     23 O         143.3657  136.5960  156.1944 O.3     1  UNL1       -0.4630
     24 C         143.1282  135.1239  156.0325 C.ar    1  UNL1        0.2447
     25 C         143.1109  134.2300  157.2369 C.ar    1  UNL1        0.1579
     26 N         142.8734  132.7579  157.0751 N.ar    1  UNL1       -0.2195
     27 C         142.6531  132.1795  155.7086 C.ar    1  UNL1        0.2058
     28 C         142.6704  133.0733  154.5042 C.ar    1  UNL1        0.1399
     29 N         142.9079  134.5455  154.6661 N.ar    1  UNL1       -0.2058
     30 S         142.4155  130.7073  155.5468 S.O2    1  UNL1        0.0283
     31 C         142.1780  129.2351  155.3849 C.3     1  UNL1        0.1835
     32 O         141.8327  130.9509  154.1863 O.2     1  UNL1       -0.1671
     33 O         142.9984  130.4636  156.9072 O.2     1  UNL1       -0.1671
@<TRIPOS>BOND
     1    18    17    1
     2    18    16    1
     3    16     8    1
     4     8     9    2
     5     8    10   am
     6    10    11    1
     7    11    12    1
     8    12    13    1
     9    13     7    1
    10     1     7    1
    11     1     2    1
    12     2     3    1
    13     3     4    1
    14     4    23    1
    15    23    24    1
    16    24    25   ar
    17    25    26   ar
    18    26    27   ar
    19    27    30    1
    20    30    31    1
    21    30    32    2
    22    30    33    2
    23    27    28   ar
    24    28    29   ar
    25     4     5    1
    26     5     6    1
    27    13    14    1
    28    14    15    1
    29    18    19    1
    30    19    20    1
    31    19    21    1
    32    19    22    1
    33    15    10    1
    34     6     1    1
    35    29    24   ar
