@<TRIPOS>MOLECULE
*****
 19 20 0 0 0
SMALL
GASTEIGER

@<TRIPOS>ATOM
      1 C         140.5422  141.8575  167.4552 C.ar    1  UNL1        0.0511
      2 C         139.7529  140.6217  167.1395 C.ar    1  UNL1        0.0163
      3 C         139.0505  139.8795  168.2376 C.ar    1  UNL1        0.0253
      4 C         139.1374  140.3730  169.6513 C.ar    1  UNL1        0.1365
      5 C         139.9268  141.6088  169.9671 C.ar    1  UNL1        0.1541
      6 O         140.0138  142.1024  171.3809 O.3     1  UNL1       -0.5039
      7 C         140.6292  142.3510  168.8690 C.ar    1  UNL1        0.0527
      8 H         139.5750  141.6388  172.0668 H       1  UNL1        0.2923
      9 C         142.7285  142.4606  166.1878 C.3     1  UNL1        0.1122
     10 N         141.2447  142.5997  166.3572 N.pl3   1  UNL1       -0.3040
     11 C         140.4632  143.4810  165.4285 C.3     1  UNL1        0.1122
     12 N         138.4350  139.6308  170.7494 N.2     1  UNL1       -0.1435
     13 N         137.2050  138.8283  170.4446 N.2     1  UNL1       -0.1284
     14 C         136.5026  138.0861  171.5427 C.ar    1  UNL1        0.1838
     15 C         135.2486  138.6476  172.1447 C.ar    1  UNL1        0.0406
     16 C         134.5462  137.9054  173.2427 C.ar    1  UNL1        0.0048
     17 C         135.0977  136.6016  173.7388 C.ar    1  UNL1        0.0208
     18 C         136.3516  136.0401  173.1368 C.ar    1  UNL1        0.1006
     19 N         137.0541  136.7823  172.0388 N.ar    1  UNL1       -0.2236
@<TRIPOS>BOND
     1     9    10    1
     2    10    11    1
     3    10     1    1
     4     1     2   ar
     5     2     3   ar
     6     3     4   ar
     7     4    12    1
     8    12    13    2
     9    13    14    1
    10    14    15   ar
    11    15    16   ar
    12    16    17   ar
    13    17    18   ar
    14    18    19   ar
    15     4     5   ar
    16     5     6    1
    17     5     7   ar
    18     7     1   ar
    19    19    14   ar
    20     6     8    1
@<TRIPOS>MOLECULE
*****
 19 20 0 0 0
SMALL
GASTEIGER

@<TRIPOS>ATOM
      1 C         138.9524  139.8029  160.3976 C.ar    1  UNL1        0.0511
      2 C         140.1087  139.3336  161.2299 C.ar    1  UNL1        0.0163
      3 C         140.0872  139.5223  162.7178 C.ar    1  UNL1        0.0253
      4 C         138.9095  140.1803  163.3735 C.ar    1  UNL1        0.1365
      5 C         137.7532  140.6496  162.5412 C.ar    1  UNL1        0.1541
      6 O         136.5754  141.3077  163.1969 O.3     1  UNL1       -0.5039
      7 C         137.7747  140.4609  161.0533 C.ar    1  UNL1        0.0527
      8 H         136.5620  141.4255  164.1263 H       1  UNL1        0.2923
      9 C         139.8015  138.5195  158.3044 C.3     1  UNL1        0.1122
     10 N         138.9738  139.6142  158.9097 N.pl3   1  UNL1       -0.3040
     11 C         138.1675  140.5202  158.0271 C.3     1  UNL1        0.1122
     12 N         138.8881  140.3690  164.8614 N.2     1  UNL1       -0.1435
     13 N         140.0145  141.0880  165.5425 N.2     1  UNL1       -0.1284
     14 C         139.9931  141.2767  167.0305 C.ar    1  UNL1        0.1838
     15 C         139.4686  140.1865  167.9173 C.ar    1  UNL1        0.0406
     16 C         139.4472  140.3752  169.4052 C.ar    1  UNL1        0.0048
     17 C         139.9502  141.6541  170.0063 C.ar    1  UNL1        0.0208
     18 C         140.4747  142.7443  169.1195 C.ar    1  UNL1        0.1006
     19 N         140.4961  142.5556  167.6316 N.ar    1  UNL1       -0.2236
@<TRIPOS>BOND
     1     9    10    1
     2    10    11    1
     3    10     1    1
     4     1     2   ar
     5     2     3   ar
     6     3     4   ar
     7     4    12    1
     8    12    13    2
     9    13    14    1
    10    14    15   ar
    11    15    16   ar
    12    16    17   ar
    13    17    18   ar
    14    18    19   ar
    15     4     5   ar
    16     5     6    1
    17     5     7   ar
    18     7     1   ar
    19    19    14   ar
    20     6     8    1
@<TRIPOS>MOLECULE
*****
 19 20 0 0 0
SMALL
GASTEIGER

@<TRIPOS>ATOM
      1 C         143.5353  142.5507  160.5068 C.ar    1  UNL1        0.0511
      2 C         142.3053  142.4473  161.3589 C.ar    1  UNL1        0.0163
      3 C         142.4299  142.1372  162.8212 C.ar    1  UNL1        0.0253
      4 C         143.7845  141.9305  163.4313 C.ar    1  UNL1        0.1365
      5 C         145.0145  142.0339  162.5792 C.ar    1  UNL1        0.1541
      6 O         146.3692  141.8272  163.1893 O.3     1  UNL1       -0.5039
      7 C         144.8899  142.3440  161.1169 C.ar    1  UNL1        0.0527
      8 H         146.4470  141.6334  164.1027 H       1  UNL1        0.2923
      9 C         144.5938  142.6905  158.1382 C.3     1  UNL1        0.1122
     10 N         143.4108  142.8608  159.0445 N.pl3   1  UNL1       -0.3040
     11 C         142.1032  143.3412  158.4884 C.3     1  UNL1        0.1122
     12 N         143.9090  141.6203  164.8936 N.2     1  UNL1       -0.1435
     13 N         142.7491  141.8630  165.8132 N.2     1  UNL1       -0.1284
     14 C         142.8737  141.5529  167.2755 C.ar    1  UNL1        0.1838
     15 C         142.3715  140.2444  167.8102 C.ar    1  UNL1        0.0406
     16 C         142.4961  139.9343  169.2725 C.ar    1  UNL1        0.0048
     17 C         143.1228  140.9327  170.2001 C.ar    1  UNL1        0.0208
     18 C         143.6249  142.2411  169.6655 C.ar    1  UNL1        0.1006
     19 N         143.5003  142.5512  168.2032 N.ar    1  UNL1       -0.2236
@<TRIPOS>BOND
     1     9    10    1
     2    10    11    1
     3    10     1    1
     4     1     2   ar
     5     2     3   ar
     6     3     4   ar
     7     4    12    1
     8    12    13    2
     9    13    14    1
    10    14    15   ar
    11    15    16   ar
    12    16    17   ar
    13    17    18   ar
    14    18    19   ar
    15     4     5   ar
    16     5     6    1
    17     5     7   ar
    18     7     1   ar
    19    19    14   ar
    20     6     8    1
@<TRIPOS>MOLECULE
*****
 19 20 0 0 0
SMALL
GASTEIGER

@<TRIPOS>ATOM
      1 C         139.0359  138.8790  164.9577 C.ar    1  UNL1        0.0511
      2 C         138.2526  139.6585  163.9434 C.ar    1  UNL1        0.0163
      3 C         138.5228  139.4692  162.4801 C.ar    1  UNL1        0.0253
      4 C         139.5763  138.5004  162.0311 C.ar    1  UNL1        0.1365
      5 C         140.3595  137.7209  163.0454 C.ar    1  UNL1        0.1541
      6 O         141.4130  136.7520  162.5965 O.3     1  UNL1       -0.5039
      7 C         140.0893  137.9102  164.5087 C.ar    1  UNL1        0.0527
      8 H         141.5818  136.6338  161.6824 H       1  UNL1        0.2923
      9 C         139.6686  139.9385  167.2439 C.3     1  UNL1        0.1122
     10 N         138.7657  139.0683  166.4210 N.pl3   1  UNL1       -0.3040
     11 C         137.5925  138.3873  167.0612 C.3     1  UNL1        0.1122
     12 N         139.8465  138.3111  160.5679 N.2     1  UNL1       -0.1435
     13 N         141.2435  138.4481  160.0393 N.2     1  UNL1       -0.1284
     14 C         141.5137  138.2588  158.5760 C.ar    1  UNL1        0.1838
     15 C         140.3933  138.3748  157.5853 C.ar    1  UNL1        0.0406
     16 C         140.6635  138.1855  156.1220 C.ar    1  UNL1        0.0048
     17 C         142.0541  137.8802  155.6495 C.ar    1  UNL1        0.0208
     18 C         143.1743  137.7642  156.6402 C.ar    1  UNL1        0.1006
     19 N         142.9042  137.9535  158.1034 N.ar    1  UNL1       -0.2236
@<TRIPOS>BOND
     1     9    10    1
     2    10    11    1
     3    10     1    1
     4     1     2   ar
     5     2     3   ar
     6     3     4   ar
     7     4    12    1
     8    12    13    2
     9    13    14    1
    10    14    15   ar
    11    15    16   ar
    12    16    17   ar
    13    17    18   ar
    14    18    19   ar
    15     4     5   ar
    16     5     6    1
    17     5     7   ar
    18     7     1   ar
    19    19    14   ar
    20     6     8    1
@<TRIPOS>MOLECULE
*****
 19 20 0 0 0
SMALL
GASTEIGER

@<TRIPOS>ATOM
      1 C         138.5977  139.2003  164.1663 C.ar    1  UNL1        0.0511
      2 C         138.5882  138.0410  163.2145 C.ar    1  UNL1        0.0163
      3 C         138.2042  138.2515  161.7799 C.ar    1  UNL1        0.0253
      4 C         137.8298  139.6214  161.2969 C.ar    1  UNL1        0.1365
      5 C         137.8393  140.7807  162.2486 C.ar    1  UNL1        0.1541
      6 O         137.4648  142.1506  161.7657 O.3     1  UNL1       -0.5039
      7 C         138.2233  140.5702  163.6833 C.ar    1  UNL1        0.0527
      8 H         137.2250  142.2821  160.8695 H       1  UNL1        0.2923
      9 C         137.9292  138.6647  166.6190 C.3     1  UNL1        0.1122
     10 N         138.9817  138.9898  165.6009 N.pl3   1  UNL1       -0.3040
     11 C         140.4181  139.1045  166.0175 C.3     1  UNL1        0.1122
     12 N         137.4458  139.8319  159.8623 N.2     1  UNL1       -0.1435
     13 N         138.1343  140.8873  159.0487 N.2     1  UNL1       -0.1284
     14 C         137.7504  141.0978  157.6140 C.ar    1  UNL1        0.1838
     15 C         137.3928  142.4708  157.1270 C.ar    1  UNL1        0.0406
     16 C         137.0088  142.6813  155.6924 C.ar    1  UNL1        0.0048
     17 C         136.9824  141.5188  154.7447 C.ar    1  UNL1        0.0208
     18 C         137.3399  140.1459  155.2317 C.ar    1  UNL1        0.1006
     19 N         137.7239  139.9354  156.6664 N.ar    1  UNL1       -0.2236
@<TRIPOS>BOND
     1     9    10    1
     2    10    11    1
     3    10     1    1
     4     1     2   ar
     5     2     3   ar
     6     3     4   ar
     7     4    12    1
     8    12    13    2
     9    13    14    1
    10    14    15   ar
    11    15    16   ar
    12    16    17   ar
    13    17    18   ar
    14    18    19   ar
    15     4     5   ar
    16     5     6    1
    17     5     7   ar
    18     7     1   ar
    19    19    14   ar
    20     6     8    1
@<TRIPOS>MOLECULE
*****
 19 20 0 0 0
SMALL
GASTEIGER

@<TRIPOS>ATOM
      1 C         140.7703  146.1156  156.3316 C.ar    1  UNL1        0.0511
      2 C         142.0613  145.3538  156.2802 C.ar    1  UNL1        0.0163
      3 C         142.5828  144.6775  157.5134 C.ar    1  UNL1        0.0253
      4 C         141.8131  144.7631  158.7980 C.ar    1  UNL1        0.1365
      5 C         140.5221  145.5249  158.8494 C.ar    1  UNL1        0.1541
      6 O         139.7524  145.6106  160.1341 O.3     1  UNL1       -0.5039
      7 C         140.0007  146.2012  157.6162 C.ar    1  UNL1        0.0527
      8 H         140.0781  145.1881  160.9045 H       1  UNL1        0.2923
      9 C         140.8174  146.4437  153.7548 C.3     1  UNL1        0.1122
     10 N         140.2489  146.7919  155.0984 N.pl3   1  UNL1       -0.3040
     11 C         139.1589  147.8164  155.2089 C.3     1  UNL1        0.1122
     12 N         142.3346  144.0868  160.0312 N.2     1  UNL1       -0.1435
     13 N         142.2248  144.7676  161.3633 N.2     1  UNL1       -0.1284
     14 C         142.7462  144.0913  162.5965 C.ar    1  UNL1        0.1838
     15 C         143.6687  144.8274  163.5223 C.ar    1  UNL1        0.0406
     16 C         144.1902  144.1512  164.7555 C.ar    1  UNL1        0.0048
     17 C         143.7890  142.7388  165.0628 C.ar    1  UNL1        0.0208
     18 C         142.8665  142.0028  164.1370 C.ar    1  UNL1        0.1006
     19 N         142.3451  142.6790  162.9038 N.ar    1  UNL1       -0.2236
@<TRIPOS>BOND
     1     9    10    1
     2    10    11    1
     3    10     1    1
     4     1     2   ar
     5     2     3   ar
     6     3     4   ar
     7     4    12    1
     8    12    13    2
     9    13    14    1
    10    14    15   ar
    11    15    16   ar
    12    16    17   ar
    13    17    18   ar
    14    18    19   ar
    15     4     5   ar
    16     5     6    1
    17     5     7   ar
    18     7     1   ar
    19    19    14   ar
    20     6     8    1
@<TRIPOS>MOLECULE
*****
 19 20 0 0 0
SMALL
GASTEIGER

@<TRIPOS>ATOM
      1 C         143.8915  140.0658  163.0364 C.ar    1  UNL1        0.0511
      2 C         144.4305  140.2454  161.6481 C.ar    1  UNL1        0.0163
      3 C         144.0185  139.3033  160.5559 C.ar    1  UNL1        0.0253
      4 C         143.0676  138.1817  160.8520 C.ar    1  UNL1        0.1365
      5 C         142.5286  138.0022  162.2402 C.ar    1  UNL1        0.1541
      6 O         141.5776  136.8805  162.5363 O.3     1  UNL1       -0.5039
      7 C         142.9405  138.9442  163.3324 C.ar    1  UNL1        0.0527
      8 H         141.3202  136.2921  161.8540 H       1  UNL1        0.2923
      9 C         143.4679  141.1301  165.3682 C.3     1  UNL1        0.1122
     10 N         144.3034  141.0078  164.1286 N.pl3   1  UNL1       -0.3040
     11 C         145.5510  141.8274  163.9811 C.3     1  UNL1        0.1122
     12 N         142.6556  137.2397  159.7598 N.2     1  UNL1       -0.1435
     13 N         142.9206  137.5919  158.3260 N.2     1  UNL1       -0.1284
     14 C         142.5086  136.6499  157.2338 C.ar    1  UNL1        0.1838
     15 C         141.2888  136.9427  156.4113 C.ar    1  UNL1        0.0406
     16 C         140.8769  136.0007  155.3191 C.ar    1  UNL1        0.0048
     17 C         141.6847  134.7659  155.0494 C.ar    1  UNL1        0.0208
     18 C         142.9044  134.4731  155.8719 C.ar    1  UNL1        0.1006
     19 N         143.3164  135.4151  156.9641 N.ar    1  UNL1       -0.2236
@<TRIPOS>BOND
     1     9    10    1
     2    10    11    1
     3    10     1    1
     4     1     2   ar
     5     2     3   ar
     6     3     4   ar
     7     4    12    1
     8    12    13    2
     9    13    14    1
    10    14    15   ar
    11    15    16   ar
    12    16    17   ar
    13    17    18   ar
    14    18    19   ar
    15     4     5   ar
    16     5     6    1
    17     5     7   ar
    18     7     1   ar
    19    19    14   ar
    20     6     8    1
@<TRIPOS>MOLECULE
*****
 19 20 0 0 0
SMALL
GASTEIGER

@<TRIPOS>ATOM
      1 C         144.3472  141.1721  161.3829 C.ar    1  UNL1        0.0511
      2 C         144.0795  141.7467  160.0234 C.ar    1  UNL1        0.0163
      3 C         143.5818  140.8613  158.9196 C.ar    1  UNL1        0.0253
      4 C         143.3519  139.4012  159.1753 C.ar    1  UNL1        0.1365
      5 C         143.6196  138.8266  160.5347 C.ar    1  UNL1        0.1541
      6 O         143.3897  137.3665  160.7904 O.3     1  UNL1       -0.5039
      7 C         144.1173  139.7120  161.6385 C.ar    1  UNL1        0.0527
      8 H         143.0789  136.8134  160.1009 H       1  UNL1        0.2923
      9 C         145.7261  141.4931  163.5613 C.3     1  UNL1        0.1122
     10 N         144.8449  142.0575  162.4867 N.pl3   1  UNL1       -0.3040
     11 C         144.4614  143.5073  162.5158 C.3     1  UNL1        0.1122
     12 N         142.8542  138.5158  158.0715 N.2     1  UNL1       -0.1435
     13 N         143.2846  137.0803  158.0097 N.2     1  UNL1       -0.1284
     14 C         142.7870  136.1948  156.9059 C.ar    1  UNL1        0.1838
     15 C         143.6489  135.0796  156.3927 C.ar    1  UNL1        0.0406
     16 C         143.1513  134.1942  155.2889 C.ar    1  UNL1        0.0048
     17 C         141.7916  134.4240  154.6983 C.ar    1  UNL1        0.0208
     18 C         140.9297  135.5392  155.2116 C.ar    1  UNL1        0.1006
     19 N         141.4274  136.4246  156.3154 N.ar    1  UNL1       -0.2236
@<TRIPOS>BOND
     1     9    10    1
     2    10    11    1
     3    10     1    1
     4     1     2   ar
     5     2     3   ar
     6     3     4   ar
     7     4    12    1
     8    12    13    2
     9    13    14    1
    10    14    15   ar
    11    15    16   ar
    12    16    17   ar
    13    17    18   ar
    14    18    19   ar
    15     4     5   ar
    16     5     6    1
    17     5     7   ar
    18     7     1   ar
    19    19    14   ar
    20     6     8    1
@<TRIPOS>MOLECULE
*****
 19 20 0 0 0
SMALL
GASTEIGER

@<TRIPOS>ATOM
      1 C         141.2363  143.8188  160.8332 C.ar    1  UNL1        0.0511
      2 C         141.3322  142.3477  161.1099 C.ar    1  UNL1        0.0163
      3 C         140.9581  141.8126  162.4604 C.ar    1  UNL1        0.0253
      4 C         140.4882  142.7486  163.5341 C.ar    1  UNL1        0.1365
      5 C         140.3923  144.2197  163.2574 C.ar    1  UNL1        0.1541
      6 O         139.9223  145.1558  164.3312 O.3     1  UNL1       -0.5039
      7 C         140.7664  144.7548  161.9069 C.ar    1  UNL1        0.0527
      8 H         139.6886  144.8216  165.1748 H       1  UNL1        0.2923
      9 C         142.7402  143.7324  158.7164 C.3     1  UNL1        0.1122
     10 N         141.6104  144.3539  159.4827 N.pl3   1  UNL1       -0.3040
     11 C         140.8547  145.5105  158.8986 C.3     1  UNL1        0.1122
     12 N         140.1141  142.2135  164.8846 N.2     1  UNL1       -0.1435
     13 N         140.7337  142.7962  166.1201 N.2     1  UNL1       -0.1284
     14 C         140.3596  142.2611  167.4706 C.ar    1  UNL1        0.1838
     15 C         140.4607  143.1418  168.6806 C.ar    1  UNL1        0.0406
     16 C         140.0866  142.6067  170.0311 C.ar    1  UNL1        0.0048
     17 C         139.6114  141.1909  170.1715 C.ar    1  UNL1        0.0208
     18 C         139.5103  140.3102  168.9615 C.ar    1  UNL1        0.1006
     19 N         139.8844  140.8453  167.6110 N.ar    1  UNL1       -0.2236
@<TRIPOS>BOND
     1     9    10    1
     2    10    11    1
     3    10     1    1
     4     1     2   ar
     5     2     3   ar
     6     3     4   ar
     7     4    12    1
     8    12    13    2
     9    13    14    1
    10    14    15   ar
    11    15    16   ar
    12    16    17   ar
    13    17    18   ar
    14    18    19   ar
    15     4     5   ar
    16     5     6    1
    17     5     7   ar
    18     7     1   ar
    19    19    14   ar
    20     6     8    1
