@<TRIPOS>MOLECULE
*****
 30 34 0 0 0
SMALL
GASTEIGER

@<TRIPOS>ATOM
      1 O         138.4906  139.0598  165.8911 O.2     1  UNL1       -0.2699
      2 C         139.6301  139.9843  166.2021 C.2     1  UNL1        0.2490
      3 N         140.1227  140.9445  165.1602 N.am    1  UNL1       -0.2761
      4 C         139.4758  140.9800  163.8074 C.3     1  UNL1        0.0938
      5 C         139.9684  141.9401  162.7655 C.3     1  UNL1        0.0233
      6 C         141.1080  142.8647  163.0765 C.3     1  UNL1        0.0233
      7 C         141.7548  142.8291  164.4293 C.3     1  UNL1        0.0233
      8 C         141.2622  141.8690  165.4712 C.3     1  UNL1        0.0938
      9 C         142.2319  143.8442  163.2413 C.3     1  UNL1        0.0233
     10 C         142.3818  144.5988  161.9535 C.3     1  UNL1        0.0950
     11 N         141.3503  144.0855  160.9928 N.am    1  UNL1       -0.2640
     12 C         141.1427  144.5605  159.5853 C.2     1  UNL1        0.3072
     13 O         142.0122  145.6464  159.0242 O.2     1  UNL1       -0.2523
     14 N         140.0654  143.9497  158.7389 N.am    1  UNL1       -0.2612
     15 C         139.1959  142.8639  159.2999 C.3     1  UNL1        0.1123
     16 C         138.1187  142.2531  158.4534 C.3     1  UNL1        0.0939
     17 N         137.9110  142.7281  157.0460 N.3     1  UNL1       -0.2711
     18 C         138.7806  143.8140  156.4849 C.3     1  UNL1        0.0939
     19 C         139.8578  144.4248  157.3313 C.3     1  UNL1        0.1123
     20 C         140.5631  143.0138  161.6869 C.3     1  UNL1        0.0950
     21 C         140.2769  139.9488  167.5550 C.ar    1  UNL1        0.0536
     22 C         141.7223  139.5695  167.6855 C.ar    1  UNL1        0.0045
     23 C         142.3692  139.5340  169.0384 C.ar    1  UNL1        0.0001
     24 C         141.5707  139.8777  170.2608 C.ar    1  UNL1        0.0000
     25 C         140.1253  140.2570  170.1303 C.ar    1  UNL1        0.0001
     26 C         139.4784  140.2926  168.7774 C.ar    1  UNL1        0.0045
     27 C         136.8337  142.1173  156.1994 C.3     1  UNL1        0.0576
     28 C         136.2148  142.4433  154.8726 C.3     1  UNL1        0.0160
     29 C         135.3104  141.2536  155.0022 C.3     1  UNL1        0.0028
     30 C         135.9295  140.9277  156.3290 C.3     1  UNL1        0.0160
@<TRIPOS>BOND
     1     1     2    2
     2     2    21    1
     3    21    22   ar
     4    22    23   ar
     5    23    24   ar
     6    24    25   ar
     7    25    26   ar
     8     2     3   am
     9     3     4    1
    10     4     5    1
    11     5     6    1
    12     6     7    1
    13     7     8    1
    14     6     9    1
    15     9    10    1
    16    10    11    1
    17    11    12   am
    18    12    13    2
    19    12    14   am
    20    14    15    1
    21    15    16    1
    22    16    17    1
    23    17    27    1
    24    27    28    1
    25    28    29    1
    26    29    30    1
    27    17    18    1
    28    18    19    1
    29    11    20    1
    30    26    21   ar
    31     8     3    1
    32    19    14    1
    33    20     6    1
    34    30    27    1
@<TRIPOS>MOLECULE
*****
 30 34 0 0 0
SMALL
GASTEIGER

@<TRIPOS>ATOM
      1 O         143.2845  139.5453  166.7211 O.2     1  UNL1       -0.2699
      2 C         142.2390  140.5546  167.0928 C.2     1  UNL1        0.2490
      3 N         141.7365  141.5266  166.0668 N.am    1  UNL1       -0.2761
      4 C         142.2796  141.4893  164.6690 C.3     1  UNL1        0.0938
      5 C         141.7771  142.4612  163.6430 C.3     1  UNL1        0.0233
      6 C         140.7316  143.4706  164.0148 C.3     1  UNL1        0.0233
      7 C         140.1886  143.5079  165.4125 C.3     1  UNL1        0.0233
      8 C         140.6911  142.5360  166.4385 C.3     1  UNL1        0.0938
      9 C         139.6943  144.5308  164.2382 C.3     1  UNL1        0.0233
     10 C         139.4998  145.2685  162.9466 C.3     1  UNL1        0.0950
     11 N         140.4169  144.6642  161.9250 N.am    1  UNL1       -0.2640
     12 C         140.5495  145.0953  160.4945 C.2     1  UNL1        0.3072
     13 O         139.7174  146.2290  159.9726 O.2     1  UNL1       -0.2523
     14 N         141.5141  144.3927  159.5857 N.am    1  UNL1       -0.2612
     15 C         142.3461  143.2590  160.1074 C.3     1  UNL1        0.1123
     16 C         143.3107  142.5564  159.1987 C.3     1  UNL1        0.0939
     17 N         143.4433  142.9875  157.7682 N.3     1  UNL1       -0.2711
     18 C         142.6113  144.1213  157.2463 C.3     1  UNL1        0.0939
     19 C         141.6467  144.8239  158.1551 C.3     1  UNL1        0.1123
     20 C         141.1782  143.5530  162.5851 C.3     1  UNL1        0.0950
     21 C         141.6960  140.5920  168.4906 C.ar    1  UNL1        0.0536
     22 C         140.3096  140.0923  168.7702 C.ar    1  UNL1        0.0045
     23 C         139.7666  140.1297  170.1680 C.ar    1  UNL1        0.0001
     24 C         140.6100  140.6667  171.2861 C.ar    1  UNL1        0.0000
     25 C         141.9964  141.1664  171.0065 C.ar    1  UNL1        0.0001
     26 C         142.5394  141.1291  169.6088 C.ar    1  UNL1        0.0045
     27 C         144.4080  142.2849  156.8593 C.3     1  UNL1        0.0576
     28 C         144.3149  141.6413  155.5077 C.3     1  UNL1        0.0160
     29 C         145.7721  141.2913  155.5740 C.3     1  UNL1        0.0028
     30 C         145.8650  141.9350  156.9257 C.3     1  UNL1        0.0160
@<TRIPOS>BOND
     1     1     2    2
     2     2    21    1
     3    21    22   ar
     4    22    23   ar
     5    23    24   ar
     6    24    25   ar
     7    25    26   ar
     8     2     3   am
     9     3     4    1
    10     4     5    1
    11     5     6    1
    12     6     7    1
    13     7     8    1
    14     6     9    1
    15     9    10    1
    16    10    11    1
    17    11    12   am
    18    12    13    2
    19    12    14   am
    20    14    15    1
    21    15    16    1
    22    16    17    1
    23    17    27    1
    24    27    28    1
    25    28    29    1
    26    29    30    1
    27    17    18    1
    28    18    19    1
    29    11    20    1
    30    26    21   ar
    31     8     3    1
    32    19    14    1
    33    20     6    1
    34    30    27    1
@<TRIPOS>MOLECULE
*****
 30 34 0 0 0
SMALL
GASTEIGER

@<TRIPOS>ATOM
      1 O         142.1946  139.1352  166.6462 O.2     1  UNL1       -0.2699
      2 C         141.1519  140.2108  166.5692 C.2     1  UNL1        0.2490
      3 N         140.5698  140.5975  165.2419 N.am    1  UNL1       -0.2761
      4 C         141.0305  139.9087  163.9916 C.3     1  UNL1        0.0938
      5 C         140.4484  140.2954  162.6644 C.3     1  UNL1        0.0233
      6 C         139.4057  141.3709  162.5874 C.3     1  UNL1        0.0233
      7 C         138.9450  142.0598  163.8377 C.3     1  UNL1        0.0233
      8 C         139.5271  141.6730  165.1649 C.3     1  UNL1        0.0938
      9 C         138.3613  142.4224  162.3553 C.3     1  UNL1        0.0233
     10 C         138.0760  142.4754  160.8836 C.3     1  UNL1        0.0950
     11 N         138.9440  141.4567  160.2062 N.am    1  UNL1       -0.2640
     12 C         138.9833  141.1708  158.7343 C.2     1  UNL1        0.3072
     13 O         138.0985  141.9384  157.7973 O.2     1  UNL1       -0.2523
     14 N         139.9074  140.1174  158.1993 N.am    1  UNL1       -0.2612
     15 C         140.7921  139.3498  159.1361 C.3     1  UNL1        0.1123
     16 C         141.7162  138.2963  158.6011 C.3     1  UNL1        0.0939
     17 N         141.7555  138.0104  157.1292 N.3     1  UNL1       -0.2711
     18 C         140.8707  138.7780  156.1922 C.3     1  UNL1        0.0939
     19 C         139.9467  139.8315  156.7273 C.3     1  UNL1        0.1123
     20 C         139.7658  140.7742  161.2591 C.3     1  UNL1        0.0950
     21 C         140.6912  140.8996  167.8195 C.ar    1  UNL1        0.0536
     22 C         139.6840  140.2380  168.7127 C.ar    1  UNL1        0.0045
     23 C         139.2233  140.9269  169.9630 C.ar    1  UNL1        0.0001
     24 C         139.7699  142.2773  170.3202 C.ar    1  UNL1        0.0000
     25 C         140.7772  142.9389  169.4270 C.ar    1  UNL1        0.0001
     26 C         141.2378  142.2500  168.1767 C.ar    1  UNL1        0.0045
     27 C         142.6796  136.9568  156.5941 C.3     1  UNL1        0.0576
     28 C         142.8432  135.4814  156.8087 C.3     1  UNL1        0.0160
     29 C         143.9864  135.4670  155.8375 C.3     1  UNL1        0.0028
     30 C         143.8226  136.9425  155.6230 C.3     1  UNL1        0.0160
@<TRIPOS>BOND
     1     1     2    2
     2     2    21    1
     3    21    22   ar
     4    22    23   ar
     5    23    24   ar
     6    24    25   ar
     7    25    26   ar
     8     2     3   am
     9     3     4    1
    10     4     5    1
    11     5     6    1
    12     6     7    1
    13     7     8    1
    14     6     9    1
    15     9    10    1
    16    10    11    1
    17    11    12   am
    18    12    13    2
    19    12    14   am
    20    14    15    1
    21    15    16    1
    22    16    17    1
    23    17    27    1
    24    27    28    1
    25    28    29    1
    26    29    30    1
    27    17    18    1
    28    18    19    1
    29    11    20    1
    30    26    21   ar
    31     8     3    1
    32    19    14    1
    33    20     6    1
    34    30    27    1
@<TRIPOS>MOLECULE
*****
 30 34 0 0 0
SMALL
GASTEIGER

@<TRIPOS>ATOM
      1 O         139.5990  142.0762  166.1023 O.2     1  UNL1       -0.2699
      2 C         140.8558  141.2585  166.1441 C.2     1  UNL1        0.2490
      3 N         141.3375  140.5598  164.9072 N.am    1  UNL1       -0.2761
      4 C         140.5625  140.6789  163.6285 C.3     1  UNL1        0.0938
      5 C         141.0442  139.9802  162.3917 C.3     1  UNL1        0.0233
      6 C         142.3010  139.1625  162.4336 C.3     1  UNL1        0.0233
      7 C         143.0761  139.0434  163.7122 C.3     1  UNL1        0.0233
      8 C         142.5944  139.7421  164.9491 C.3     1  UNL1        0.0938
      9 C         143.5333  138.3143  162.3234 C.3     1  UNL1        0.0233
     10 C         143.6289  137.8169  160.9114 C.3     1  UNL1        0.0950
     11 N         142.4558  138.3578  160.1490 N.am    1  UNL1       -0.2640
     12 C         142.1560  138.1105  158.7003 C.2     1  UNL1        0.3072
     13 O         143.0732  137.2523  157.8804 O.2     1  UNL1       -0.2523
     14 N         140.9390  138.7214  158.0713 N.am    1  UNL1       -0.2612
     15 C         140.0217  139.5796  158.8910 C.3     1  UNL1        0.1123
     16 C         138.8047  140.1905  158.2621 C.3     1  UNL1        0.0939
     17 N         138.5049  139.9432  156.8134 N.3     1  UNL1       -0.2711
     18 C         139.4221  139.0850  155.9936 C.3     1  UNL1        0.0939
     19 C         140.6391  138.4741  156.6225 C.3     1  UNL1        0.1123
     20 C         141.6351  139.1894  161.0897 C.3     1  UNL1        0.0950
     21 C         141.6309  141.1394  167.4228 C.ar    1  UNL1        0.0536
     22 C         142.6126  142.2065  167.8069 C.ar    1  UNL1        0.0045
     23 C         143.3877  142.0874  169.0857 C.ar    1  UNL1        0.0001
     24 C         143.1810  140.9012  169.9802 C.ar    1  UNL1        0.0000
     25 C         142.1994  139.8341  169.5961 C.ar    1  UNL1        0.0001
     26 C         141.4243  139.9531  168.3174 C.ar    1  UNL1        0.0045
     27 C         137.2878  140.5542  156.1843 C.3     1  UNL1        0.0576
     28 C         136.2584  140.0906  155.1968 C.3     1  UNL1        0.0160
     29 C         135.5667  141.4180  155.2948 C.3     1  UNL1        0.0028
     30 C         136.5962  141.8815  156.2823 C.3     1  UNL1        0.0160
@<TRIPOS>BOND
     1     1     2    2
     2     2    21    1
     3    21    22   ar
     4    22    23   ar
     5    23    24   ar
     6    24    25   ar
     7    25    26   ar
     8     2     3   am
     9     3     4    1
    10     4     5    1
    11     5     6    1
    12     6     7    1
    13     7     8    1
    14     6     9    1
    15     9    10    1
    16    10    11    1
    17    11    12   am
    18    12    13    2
    19    12    14   am
    20    14    15    1
    21    15    16    1
    22    16    17    1
    23    17    27    1
    24    27    28    1
    25    28    29    1
    26    29    30    1
    27    17    18    1
    28    18    19    1
    29    11    20    1
    30    26    21   ar
    31     8     3    1
    32    19    14    1
    33    20     6    1
    34    30    27    1
@<TRIPOS>MOLECULE
*****
 30 34 0 0 0
SMALL
GASTEIGER

@<TRIPOS>ATOM
      1 O         145.0946  131.2657  158.1959 O.2     1  UNL1       -0.2699
      2 C         144.1485  131.4667  157.0493 C.2     1  UNL1        0.2490
      3 N         143.4915  132.7995  156.8439 N.am    1  UNL1       -0.2761
      4 C         143.7805  133.9311  157.7851 C.3     1  UNL1        0.0938
      5 C         143.1235  135.2638  157.5796 C.3     1  UNL1        0.0233
      6 C         142.1775  135.4648  156.4331 C.3     1  UNL1        0.0233
      7 C         141.8884  134.3332  155.4919 C.3     1  UNL1        0.0233
      8 C         142.5455  133.0005  155.6974 C.3     1  UNL1        0.0938
      9 C         141.2144  135.8135  155.3372 C.3     1  UNL1        0.0233
     10 C         140.8098  137.2471  155.5143 C.3     1  UNL1        0.0950
     11 N         141.5229  137.7844  156.7197 N.am    1  UNL1       -0.2640
     12 C         141.4105  139.1783  157.2619 C.2     1  UNL1        0.3072
     13 O         140.5203  140.1773  156.5840 O.2     1  UNL1       -0.2523
     14 N         142.1883  139.5734  158.4821 N.am    1  UNL1       -0.2612
     15 C         143.0786  138.5745  159.1600 C.3     1  UNL1        0.1123
     16 C         143.8564  138.9696  160.3802 C.3     1  UNL1        0.0939
     17 N         143.7440  140.3636  160.9225 N.3     1  UNL1       -0.2711
     18 C         142.8537  141.3625  160.2446 C.3     1  UNL1        0.0939
     19 C         142.0759  140.9674  159.0244 C.3     1  UNL1        0.1123
     20 C         142.3681  136.6830  157.2875 C.3     1  UNL1        0.0950
     21 C         143.8595  130.3350  156.1082 C.ar    1  UNL1        0.0536
     22 C         144.6893  130.1577  154.8712 C.ar    1  UNL1        0.0045
     23 C         144.4002  129.0260  153.9301 C.ar    1  UNL1        0.0001
     24 C         143.2814  128.0716  154.2259 C.ar    1  UNL1        0.0000
     25 C         142.4517  128.2490  155.4629 C.ar    1  UNL1        0.0001
     26 C         142.7407  129.3806  156.4040 C.ar    1  UNL1        0.0045
     27 C         144.5219  140.7587  162.1428 C.3     1  UNL1        0.0576
     28 C         145.3254  141.9595  162.5454 C.3     1  UNL1        0.0160
     29 C         145.6218  141.3176  163.8684 C.3     1  UNL1        0.0028
     30 C         144.8182  140.1168  163.4656 C.3     1  UNL1        0.0160
@<TRIPOS>BOND
     1     1     2    2
     2     2    21    1
     3    21    22   ar
     4    22    23   ar
     5    23    24   ar
     6    24    25   ar
     7    25    26   ar
     8     2     3   am
     9     3     4    1
    10     4     5    1
    11     5     6    1
    12     6     7    1
    13     7     8    1
    14     6     9    1
    15     9    10    1
    16    10    11    1
    17    11    12   am
    18    12    13    2
    19    12    14   am
    20    14    15    1
    21    15    16    1
    22    16    17    1
    23    17    27    1
    24    27    28    1
    25    28    29    1
    26    29    30    1
    27    17    18    1
    28    18    19    1
    29    11    20    1
    30    26    21   ar
    31     8     3    1
    32    19    14    1
    33    20     6    1
    34    30    27    1
@<TRIPOS>MOLECULE
*****
 30 34 0 0 0
SMALL
GASTEIGER

@<TRIPOS>ATOM
      1 O         140.9652  139.2204  166.4203 O.2     1  UNL1       -0.2699
      2 C         141.5916  140.5809  166.3390 C.2     1  UNL1        0.2490
      3 N         142.1858  141.0570  165.0465 N.am    1  UNL1       -0.2761
      4 C         142.1536  140.1726  163.8355 C.3     1  UNL1        0.0938
      5 C         142.7477  140.6487  162.5431 C.3     1  UNL1        0.0233
      6 C         143.3741  142.0092  162.4618 C.3     1  UNL1        0.0233
      7 C         143.4064  142.8936  163.6729 C.3     1  UNL1        0.0233
      8 C         142.8122  142.4175  164.9652 C.3     1  UNL1        0.0938
      9 C         144.0310  143.3376  162.2299 C.3     1  UNL1        0.0233
     10 C         144.4786  143.3899  160.7991 C.3     1  UNL1        0.0950
     11 N         144.0983  142.0937  160.1468 N.am    1  UNL1       -0.2640
     12 C         144.3555  141.7171  158.7179 C.2     1  UNL1        0.3072
     13 O         145.0529  142.6791  157.8025 O.2     1  UNL1       -0.2523
     14 N         143.9152  140.3783  158.2043 N.am    1  UNL1       -0.2612
     15 C         143.2177  139.4162  159.1195 C.3     1  UNL1        0.1123
     16 C         142.7774  138.0774  158.6059 C.3     1  UNL1        0.0939
     17 N         143.0346  137.7008  157.1770 N.3     1  UNL1       -0.2711
     18 C         143.7320  138.6629  156.2616 C.3     1  UNL1        0.0939
     19 C         144.1723  140.0016  156.7753 C.3     1  UNL1        0.1123
     20 C         143.4157  141.2404  161.1744 C.3     1  UNL1        0.0950
     21 C         141.6239  141.4653  167.5501 C.ar    1  UNL1        0.0536
     22 C         142.7826  141.3943  168.5000 C.ar    1  UNL1        0.0045
     23 C         142.8148  142.2788  169.7111 C.ar    1  UNL1        0.0001
     24 C         141.6884  143.2342  169.9723 C.ar    1  UNL1        0.0000
     25 C         140.5297  143.3052  169.0223 C.ar    1  UNL1        0.0001
     26 C         140.4974  142.4208  167.8113 C.ar    1  UNL1        0.0045
     27 C         142.5942  136.3619  156.6633 C.3     1  UNL1        0.0576
     28 C         143.1586  134.9727  156.7032 C.3     1  UNL1        0.0160
     29 C         141.9716  134.4686  155.9369 C.3     1  UNL1        0.0028
     30 C         141.4074  135.8579  155.8971 C.3     1  UNL1        0.0160
@<TRIPOS>BOND
     1     1     2    2
     2     2    21    1
     3    21    22   ar
     4    22    23   ar
     5    23    24   ar
     6    24    25   ar
     7    25    26   ar
     8     2     3   am
     9     3     4    1
    10     4     5    1
    11     5     6    1
    12     6     7    1
    13     7     8    1
    14     6     9    1
    15     9    10    1
    16    10    11    1
    17    11    12   am
    18    12    13    2
    19    12    14   am
    20    14    15    1
    21    15    16    1
    22    16    17    1
    23    17    27    1
    24    27    28    1
    25    28    29    1
    26    29    30    1
    27    17    18    1
    28    18    19    1
    29    11    20    1
    30    26    21   ar
    31     8     3    1
    32    19    14    1
    33    20     6    1
    34    30    27    1
@<TRIPOS>MOLECULE
*****
 30 34 0 0 0
SMALL
GASTEIGER

@<TRIPOS>ATOM
      1 O         143.5961  142.2339  166.5029 O.2     1  UNL1       -0.2699
      2 C         142.3346  141.4230  166.5384 C.2     1  UNL1        0.2490
      3 N         141.8098  140.7970  165.2803 N.am    1  UNL1       -0.2761
      4 C         142.5463  140.9820  163.9868 C.3     1  UNL1        0.0938
      5 C         142.0214  140.3560  162.7287 C.3     1  UNL1        0.0233
      6 C         140.7600  139.5451  162.7643 C.3     1  UNL1        0.0233
      7 C         140.0235  139.3602  164.0578 C.3     1  UNL1        0.0233
      8 C         140.5484  139.9861  165.3158 C.3     1  UNL1        0.0938
      9 C         139.5183  138.7120  162.6456 C.3     1  UNL1        0.0233
     10 C         139.3755  138.2943  161.2119 C.3     1  UNL1        0.0950
     11 N         140.5291  138.8693  160.4446 N.am    1  UNL1       -0.2640
     12 C         140.7825  138.7008  158.9759 C.2     1  UNL1        0.3072
     13 O         139.8339  137.8952  158.1387 O.2     1  UNL1       -0.2523
     14 N         141.9846  139.3381  158.3442 N.am    1  UNL1       -0.2612
     15 C         142.9332  140.1438  159.1813 C.3     1  UNL1        0.1123
     16 C         144.1353  140.7810  158.5497 C.3     1  UNL1        0.0939
     17 N         144.3887  140.6125  157.0809 N.3     1  UNL1       -0.2711
     18 C         143.4400  139.8068  156.2438 C.3     1  UNL1        0.0939
     19 C         142.2380  139.1696  156.8754 C.3     1  UNL1        0.1123
     20 C         141.3847  139.6423  161.4039 C.3     1  UNL1        0.0950
     21 C         141.5981  141.2381  167.8319 C.ar    1  UNL1        0.0536
     22 C         140.6644  142.3047  168.3225 C.ar    1  UNL1        0.0045
     23 C         139.9279  142.1197  169.6161 C.ar    1  UNL1        0.0001
     24 C         140.1250  140.8682  170.4190 C.ar    1  UNL1        0.0000
     25 C         141.0587  139.8016  169.9285 C.ar    1  UNL1        0.0001
     26 C         141.7952  139.9865  168.6349 C.ar    1  UNL1        0.0045
     27 C         145.5908  141.2498  156.4492 C.3     1  UNL1        0.0576
     28 C         146.5312  142.3534  156.8335 C.3     1  UNL1        0.0160
     29 C         147.2907  142.1510  155.5559 C.3     1  UNL1        0.0028
     30 C         146.3503  141.0474  155.1717 C.3     1  UNL1        0.0160
@<TRIPOS>BOND
     1     1     2    2
     2     2    21    1
     3    21    22   ar
     4    22    23   ar
     5    23    24   ar
     6    24    25   ar
     7    25    26   ar
     8     2     3   am
     9     3     4    1
    10     4     5    1
    11     5     6    1
    12     6     7    1
    13     7     8    1
    14     6     9    1
    15     9    10    1
    16    10    11    1
    17    11    12   am
    18    12    13    2
    19    12    14   am
    20    14    15    1
    21    15    16    1
    22    16    17    1
    23    17    27    1
    24    27    28    1
    25    28    29    1
    26    29    30    1
    27    17    18    1
    28    18    19    1
    29    11    20    1
    30    26    21   ar
    31     8     3    1
    32    19    14    1
    33    20     6    1
    34    30    27    1
@<TRIPOS>MOLECULE
*****
 30 34 0 0 0
SMALL
GASTEIGER

@<TRIPOS>ATOM
      1 O         141.1722  139.6218  166.2370 O.2     1  UNL1       -0.2699
      2 C         141.2747  141.1155  166.3286 C.2     1  UNL1        0.2490
      3 N         141.0836  141.9570  165.1016 N.am    1  UNL1       -0.2761
      4 C         140.7901  141.3048  163.7831 C.3     1  UNL1        0.0938
      5 C         140.5990  142.1462  162.5562 C.3     1  UNL1        0.0233
      6 C         140.7015  143.6399  162.6477 C.3     1  UNL1        0.0233
      7 C         140.9950  144.2922  163.9662 C.3     1  UNL1        0.0233
      8 C         141.1860  143.4507  165.1931 C.3     1  UNL1        0.0938
      9 C         140.7741  145.1369  162.5851 C.3     1  UNL1        0.0233
     10 C         140.5217  145.5543  161.1666 C.3     1  UNL1        0.0950
     11 N         140.2931  144.3153  160.3525 N.am    1  UNL1       -0.2640
     12 C         140.0042  144.2678  158.8814 C.2     1  UNL1        0.3072
     13 O         139.9226  145.5405  158.0917 O.2     1  UNL1       -0.2523
     14 N         139.7968  142.9477  158.2001 N.am    1  UNL1       -0.2612
     15 C         139.8784  141.6751  158.9898 C.3     1  UNL1        0.1123
     16 C         139.6710  140.3550  158.3084 C.3     1  UNL1        0.0939
     17 N         139.3821  140.3075  156.8373 N.3     1  UNL1       -0.2711
     18 C         139.3005  141.5801  156.0475 C.3     1  UNL1        0.0939
     19 C         139.5079  142.9002  156.7289 C.3     1  UNL1        0.1123
     20 C         140.4042  143.1322  161.2678 C.3     1  UNL1        0.0950
     21 C         141.5682  141.7678  167.6471 C.ar    1  UNL1        0.0536
     22 C         140.4532  142.3663  168.4524 C.ar    1  UNL1        0.0045
     23 C         140.7468  143.0186  169.7709 C.ar    1  UNL1        0.0001
     24 C         142.1552  143.0723  170.2841 C.ar    1  UNL1        0.0000
     25 C         143.2702  142.4737  169.4787 C.ar    1  UNL1        0.0001
     26 C         142.9767  141.8215  168.1602 C.ar    1  UNL1        0.0045
     27 C         139.1747  138.9873  156.1558 C.3     1  UNL1        0.0576
     28 C         138.4281  138.5278  154.9387 C.3     1  UNL1        0.0160
     29 C         138.8814  137.1205  155.1921 C.3     1  UNL1        0.0028
     30 C         139.6279  137.5802  156.4092 C.3     1  UNL1        0.0160
@<TRIPOS>BOND
     1     1     2    2
     2     2    21    1
     3    21    22   ar
     4    22    23   ar
     5    23    24   ar
     6    24    25   ar
     7    25    26   ar
     8     2     3   am
     9     3     4    1
    10     4     5    1
    11     5     6    1
    12     6     7    1
    13     7     8    1
    14     6     9    1
    15     9    10    1
    16    10    11    1
    17    11    12   am
    18    12    13    2
    19    12    14   am
    20    14    15    1
    21    15    16    1
    22    16    17    1
    23    17    27    1
    24    27    28    1
    25    28    29    1
    26    29    30    1
    27    17    18    1
    28    18    19    1
    29    11    20    1
    30    26    21   ar
    31     8     3    1
    32    19    14    1
    33    20     6    1
    34    30    27    1
@<TRIPOS>MOLECULE
*****
 30 34 0 0 0
SMALL
GASTEIGER

@<TRIPOS>ATOM
      1 O         143.3584  141.4397  166.8134 O.2     1  UNL1       -0.2699
      2 C         141.8787  141.6373  166.6664 C.2     1  UNL1        0.2490
      3 N         141.2849  141.8750  165.3096 N.am    1  UNL1       -0.2761
      4 C         142.1708  141.9152  164.0998 C.3     1  UNL1        0.0938
      5 C         141.5770  142.1529  162.7430 C.3     1  UNL1        0.0233
      6 C         140.0973  142.3505  162.5961 C.3     1  UNL1        0.0233
      7 C         139.2115  142.3103  163.8058 C.3     1  UNL1        0.0233
      8 C         139.8053  142.0726  165.1626 C.3     1  UNL1        0.0938
      9 C         138.6434  142.5638  162.2950 C.3     1  UNL1        0.0233
     10 C         138.5007  142.7618  160.8149 C.3     1  UNL1        0.0950
     11 N         139.8665  142.6709  160.2013 N.am    1  UNL1       -0.2640
     12 C         140.1888  142.8098  158.7430 C.2     1  UNL1        0.3072
     13 O         139.0909  143.0640  157.7531 O.2     1  UNL1       -0.2523
     14 N         141.6091  142.6946  158.2746 N.am    1  UNL1       -0.2612
     15 C         142.7070  142.4404  159.2644 C.3     1  UNL1        0.1123
     16 C         144.1273  142.3252  158.7959 C.3     1  UNL1        0.0939
     17 N         144.4497  142.4641  157.3377 N.3     1  UNL1       -0.2711
     18 C         143.3518  142.7182  156.3478 C.3     1  UNL1        0.0939
     19 C         141.9315  142.8335  156.8162 C.3     1  UNL1        0.1123
     20 C         140.8532  142.4167  161.3020 C.3     1  UNL1        0.0950
     21 C         140.9929  141.5971  167.8762 C.ar    1  UNL1        0.0536
     22 C         140.2559  140.3380  168.2247 C.ar    1  UNL1        0.0045
     23 C         139.3700  140.2979  169.4345 C.ar    1  UNL1        0.0001
     24 C         139.2211  141.5169  170.2958 C.ar    1  UNL1        0.0000
     25 C         139.9582  142.7760  169.9474 C.ar    1  UNL1        0.0001
     26 C         140.8440  142.8161  168.7376 C.ar    1  UNL1        0.0045
     27 C         145.8701  142.3488  156.8691 C.3     1  UNL1        0.0576
     28 C         147.1826  142.9247  157.3111 C.3     1  UNL1        0.0160
     29 C         147.8787  142.1859  156.2067 C.3     1  UNL1        0.0028
     30 C         146.5660  141.6100  155.7648 C.3     1  UNL1        0.0160
@<TRIPOS>BOND
     1     1     2    2
     2     2    21    1
     3    21    22   ar
     4    22    23   ar
     5    23    24   ar
     6    24    25   ar
     7    25    26   ar
     8     2     3   am
     9     3     4    1
    10     4     5    1
    11     5     6    1
    12     6     7    1
    13     7     8    1
    14     6     9    1
    15     9    10    1
    16    10    11    1
    17    11    12   am
    18    12    13    2
    19    12    14   am
    20    14    15    1
    21    15    16    1
    22    16    17    1
    23    17    27    1
    24    27    28    1
    25    28    29    1
    26    29    30    1
    27    17    18    1
    28    18    19    1
    29    11    20    1
    30    26    21   ar
    31     8     3    1
    32    19    14    1
    33    20     6    1
    34    30    27    1
