@<TRIPOS>MOLECULE
*****
 28 32 0 0 0
SMALL
GASTEIGER

@<TRIPOS>ATOM
      1 C         142.5664  140.1716  162.2516 C.ar    1  UNL1        0.0872
      2 C         141.7142  140.5069  161.0636 C.ar    1  UNL1        0.0508
      3 C         140.2290  140.6457  161.2211 C.ar    1  UNL1        0.1347
      4 N         139.5959  140.4492  162.5667 N.ar    1  UNL1       -0.2122
      5 C         140.4480  140.1138  163.7547 C.ar    1  UNL1        0.1596
      6 N         141.9332  139.9750  163.5972 N.ar    1  UNL1       -0.2293
      7 C         139.8148  139.9172  165.1003 C.2     1  UNL1        0.0181
      8 C         138.6521  138.9820  165.2526 C.2     1  UNL1        0.0006
      9 C         138.0189  138.7854  166.5982 C.2     1  UNL1        0.0186
     10 C         138.5486  139.5241  167.7914 C.2     1  UNL1        0.0777
     11 N         138.1324  139.5328  169.2325 N.2     1  UNL1       -0.2442
     12 C         139.0381  140.4734  169.9707 C.2     1  UNL1        0.0985
     13 C         140.0139  141.0460  168.9860 C.2     1  UNL1        0.0182
     14 C         139.7114  140.4594  167.6390 C.2     1  UNL1        0.0015
     15 C         140.3445  140.6559  166.2935 C.3     1  UNL1        0.0573
     16 N         139.3768  140.9811  160.0330 N.pl3   1  UNL1       -0.2882
     17 C         139.2703  142.4018  159.5637 C.3     1  UNL1        0.1216
     18 C         138.4182  142.7372  158.3756 C.3     1  UNL1        0.1350
     19 C         137.4938  142.6091  157.2013 C.3     1  UNL1        0.0339
     20 C         137.1249  141.1623  157.0575 C.3     1  UNL1        0.0339
     21 C         137.8212  140.3963  158.1429 C.3     1  UNL1        0.1350
     22 C         138.6313  139.8959  159.3145 C.3     1  UNL1        0.1216
     23 O         138.6205  141.3696  158.9575 O.3     1  UNL1       -0.3552
     24 C         144.0515  140.0328  162.0941 C.3     1  UNL1        0.1963
     25 C         145.9000  141.6876  163.7806 C.3     1  UNL1        0.1765
     26 S         144.9758  140.8603  162.9374 S.O2    1  UNL1       -0.0025
     27 O         145.1511  139.7054  163.8784 O.2     1  UNL1       -0.1726
     28 O         144.8005  142.0152  161.9963 O.2     1  UNL1       -0.1726
@<TRIPOS>BOND
     1    25    26    1
     2    26    27    2
     3    26    28    2
     4    26    24    1
     5    24     1    1
     6     1     2   ar
     7     2     3   ar
     8     3    16    1
     9    16    17    1
    10    17    18    1
    11    18    19    1
    12    19    20    1
    13    20    21    1
    14    21    22    1
    15    21    23    1
    16     3     4   ar
    17     4     5   ar
    18     5     7    1
    19     7     8    2
    20     8     9    1
    21     9    10    2
    22    10    11    1
    23    11    12    2
    24    12    13    1
    25    13    14    2
    26    14    15    1
    27     5     6   ar
    28     6     1   ar
    29    22    16    1
    30    15     7    1
    31    23    18    1
    32    14    10    1
@<TRIPOS>MOLECULE
*****
 28 32 0 0 0
SMALL
GASTEIGER

@<TRIPOS>ATOM
      1 C         141.1455  142.7679  161.3665 C.ar    1  UNL1        0.0872
      2 C         141.3414  141.7575  160.2754 C.ar    1  UNL1        0.0508
      3 C         141.0411  140.3102  160.5307 C.ar    1  UNL1        0.1347
      4 N         140.5451  139.8733  161.8772 N.ar    1  UNL1       -0.2122
      5 C         140.3492  140.8838  162.9683 C.ar    1  UNL1        0.1596
      6 N         140.6493  142.3310  162.7130 N.ar    1  UNL1       -0.2293
      7 C         139.8530  140.4468  164.3148 C.2     1  UNL1        0.0181
      8 C         138.8374  139.3481  164.4196 C.2     1  UNL1        0.0006
      9 C         138.3412  138.9111  165.7661 C.2     1  UNL1        0.0186
     10 C         138.8609  139.5730  167.0078 C.2     1  UNL1        0.0777
     11 N         138.5600  139.3570  168.4613 N.2     1  UNL1       -0.2442
     12 C         139.3898  140.3222  169.2549 C.2     1  UNL1        0.0985
     13 C         140.2035  141.1348  168.2918 C.2     1  UNL1        0.0182
     14 C         139.8767  140.6718  166.9030 C.2     1  UNL1        0.0015
     15 C         140.3727  141.1087  165.5565 C.3     1  UNL1        0.0573
     16 N         141.2371  139.2997  159.4394 N.pl3   1  UNL1       -0.2882
     17 C         140.0975  138.9481  158.5296 C.3     1  UNL1        0.1216
     18 C         140.2934  137.9376  157.4384 C.3     1  UNL1        0.1350
     19 C         140.9212  136.9219  156.5306 C.3     1  UNL1        0.0339
     20 C         142.3501  136.7446  156.9513 C.3     1  UNL1        0.0339
     21 C         142.6053  137.6508  158.1190 C.3     1  UNL1        0.1350
     22 C         142.5723  138.6410  159.2582 C.3     1  UNL1        0.1216
     23 O         141.3342  138.3881  158.4201 O.3     1  UNL1       -0.3552
     24 C         141.4457  144.2152  161.1112 C.3     1  UNL1        0.1963
     25 C         140.3545  145.5645  158.6641 C.3     1  UNL1        0.1765
     26 S         140.9000  144.8899  159.8876 S.O2    1  UNL1       -0.0025
     27 O         142.2782  144.9330  159.2969 O.2     1  UNL1       -0.1726
     28 O         139.5219  144.8467  160.4783 O.2     1  UNL1       -0.1726
@<TRIPOS>BOND
     1    25    26    1
     2    26    27    2
     3    26    28    2
     4    26    24    1
     5    24     1    1
     6     1     2   ar
     7     2     3   ar
     8     3    16    1
     9    16    17    1
    10    17    18    1
    11    18    19    1
    12    19    20    1
    13    20    21    1
    14    21    22    1
    15    21    23    1
    16     3     4   ar
    17     4     5   ar
    18     5     7    1
    19     7     8    2
    20     8     9    1
    21     9    10    2
    22    10    11    1
    23    11    12    2
    24    12    13    1
    25    13    14    2
    26    14    15    1
    27     5     6   ar
    28     6     1   ar
    29    22    16    1
    30    15     7    1
    31    23    18    1
    32    14    10    1
@<TRIPOS>MOLECULE
*****
 28 32 0 0 0
SMALL
GASTEIGER

@<TRIPOS>ATOM
      1 C         143.5509  139.3218  156.7660 C.ar    1  UNL1        0.0872
      2 C         143.2210  137.9521  156.2510 C.ar    1  UNL1        0.0508
      3 C         142.9038  136.8455  157.2127 C.ar    1  UNL1        0.1347
      4 N         142.9164  137.1085  158.6894 N.ar    1  UNL1       -0.2122
      5 C         143.2462  138.4782  159.2044 C.ar    1  UNL1        0.1596
      6 N         143.5635  139.5847  158.2428 N.ar    1  UNL1       -0.2293
      7 C         143.2588  138.7412  160.6812 C.2     1  UNL1        0.0181
      8 C         144.1831  139.7761  161.2508 C.2     1  UNL1        0.0006
      9 C         144.1957  140.0391  162.7276 C.2     1  UNL1        0.0186
     10 C         143.2839  139.2670  163.6346 C.2     1  UNL1        0.0777
     11 N         143.0759  139.3073  165.1195 N.2     1  UNL1       -0.2442
     12 C         142.0230  138.2972  165.4676 C.2     1  UNL1        0.0985
     13 C         141.5804  137.6326  164.1977 C.2     1  UNL1        0.0182
     14 C         142.3597  138.2320  163.0649 C.2     1  UNL1        0.0015
     15 C         142.3471  137.9691  161.5882 C.3     1  UNL1        0.0573
     16 N         142.5740  135.4758  156.6976 N.pl3   1  UNL1       -0.2882
     17 C         143.2949  134.2772  157.2394 C.3     1  UNL1        0.1216
     18 C         142.9650  132.9075  156.7243 C.3     1  UNL1        0.1350
     19 C         142.3353  131.7882  155.9493 C.3     1  UNL1        0.0339
     20 C         141.3125  132.3816  155.0264 C.3     1  UNL1        0.0339
     21 C         141.3101  133.8675  155.2310 C.3     1  UNL1        0.1350
     22 C         141.5233  135.3048  155.6408 C.3     1  UNL1        0.1216
     23 O         142.3314  134.1925  156.2804 O.3     1  UNL1       -0.3552
     24 C         143.8681  140.4283  155.8044 C.3     1  UNL1        0.1963
     25 C         146.3371  142.0883  156.1893 C.3     1  UNL1        0.1765
     26 S         145.1027  141.2584  155.9969 S.O2    1  UNL1       -0.0025
     27 O         144.2518  142.4414  156.3524 O.2     1  UNL1       -0.1726
     28 O         145.9535  140.0752  155.6413 O.2     1  UNL1       -0.1726
@<TRIPOS>BOND
     1    25    26    1
     2    26    27    2
     3    26    28    2
     4    26    24    1
     5    24     1    1
     6     1     2   ar
     7     2     3   ar
     8     3    16    1
     9    16    17    1
    10    17    18    1
    11    18    19    1
    12    19    20    1
    13    20    21    1
    14    21    22    1
    15    21    23    1
    16     3     4   ar
    17     4     5   ar
    18     5     7    1
    19     7     8    2
    20     8     9    1
    21     9    10    2
    22    10    11    1
    23    11    12    2
    24    12    13    1
    25    13    14    2
    26    14    15    1
    27     5     6   ar
    28     6     1   ar
    29    22    16    1
    30    15     7    1
    31    23    18    1
    32    14    10    1
@<TRIPOS>MOLECULE
*****
 28 32 0 0 0
SMALL
GASTEIGER

@<TRIPOS>ATOM
      1 C         139.4980  142.1961  162.3956 C.ar    1  UNL1        0.0872
      2 C         139.7128  141.4007  161.1422 C.ar    1  UNL1        0.0508
      3 C         140.5280  140.1421  161.1831 C.ar    1  UNL1        0.1347
      4 N         141.1283  139.6791  162.4773 N.ar    1  UNL1       -0.2122
      5 C         140.9134  140.4746  163.7307 C.ar    1  UNL1        0.1596
      6 N         140.0983  141.7330  163.6899 N.ar    1  UNL1       -0.2293
      7 C         141.5138  140.0114  165.0251 C.2     1  UNL1        0.0181
      8 C         142.7649  139.1841  165.0179 C.2     1  UNL1        0.0006
      9 C         143.3653  138.7210  166.3123 C.2     1  UNL1        0.0186
     10 C         142.7144  139.0853  167.6137 C.2     1  UNL1        0.0777
     11 N         143.0733  138.7754  169.0367 N.2     1  UNL1       -0.2442
     12 C         142.0439  139.4112  169.9233 C.2     1  UNL1        0.0985
     13 C         141.0488  140.1141  169.0482 C.2     1  UNL1        0.0182
     14 C         141.4632  139.9127  167.6207 C.2     1  UNL1        0.0015
     15 C         140.8629  140.3758  166.3265 C.3     1  UNL1        0.0573
     16 N         140.7428  139.3466  159.9296 N.pl3   1  UNL1       -0.2882
     17 C         142.1359  139.0416  159.4646 C.3     1  UNL1        0.1216
     18 C         142.3508  138.2460  158.2111 C.3     1  UNL1        0.1350
     19 C         142.0964  137.4565  156.9613 C.3     1  UNL1        0.0339
     20 C         140.6119  137.3496  156.7748 C.3     1  UNL1        0.0339
     21 C         139.9488  138.0730  157.9091 C.3     1  UNL1        0.1350
     22 C         139.5647  138.8563  159.1413 C.3     1  UNL1        0.1216
     23 O         141.0235  138.6271  158.7968 O.3     1  UNL1       -0.3552
     24 C         138.6829  143.4546  162.3547 C.3     1  UNL1        0.1963
     25 C         140.0406  146.1118  162.0458 C.3     1  UNL1        0.1765
     26 S         139.3617  144.7833  162.2003 S.O2    1  UNL1       -0.0025
     27 O         139.3335  144.9706  163.6882 O.2     1  UNL1       -0.1726
     28 O         139.3899  144.5959  160.7122 O.2     1  UNL1       -0.1726
@<TRIPOS>BOND
     1    25    26    1
     2    26    27    2
     3    26    28    2
     4    26    24    1
     5    24     1    1
     6     1     2   ar
     7     2     3   ar
     8     3    16    1
     9    16    17    1
    10    17    18    1
    11    18    19    1
    12    19    20    1
    13    20    21    1
    14    21    22    1
    15    21    23    1
    16     3     4   ar
    17     4     5   ar
    18     5     7    1
    19     7     8    2
    20     8     9    1
    21     9    10    2
    22    10    11    1
    23    11    12    2
    24    12    13    1
    25    13    14    2
    26    14    15    1
    27     5     6   ar
    28     6     1   ar
    29    22    16    1
    30    15     7    1
    31    23    18    1
    32    14    10    1
@<TRIPOS>MOLECULE
*****
 28 32 0 0 0
SMALL
GASTEIGER

@<TRIPOS>ATOM
      1 C         142.8908  141.6137  161.4541 C.ar    1  UNL1        0.0872
      2 C         142.6586  140.7587  160.2437 C.ar    1  UNL1        0.0508
      3 C         141.6895  139.6155  160.3076 C.ar    1  UNL1        0.1347
      4 N         140.9526  139.3274  161.5819 N.ar    1  UNL1       -0.2122
      5 C         141.1848  140.1824  162.7923 C.ar    1  UNL1        0.1596
      6 N         142.1538  141.3255  162.7284 N.ar    1  UNL1       -0.2293
      7 C         140.4478  139.8941  164.0667 C.2     1  UNL1        0.0181
      8 C         139.2662  138.9702  164.0572 C.2     1  UNL1        0.0006
      9 C         138.5292  138.6819  165.3316 C.2     1  UNL1        0.0186
     10 C         138.9739  139.3178  166.6153 C.2     1  UNL1        0.0777
     11 N         138.4483  139.2231  168.0170 N.2     1  UNL1       -0.2442
     12 C         139.3050  140.0886  168.8927 C.2     1  UNL1        0.0985
     13 C         140.3602  140.7182  168.0323 C.2     1  UNL1        0.0182
     14 C         140.1555  140.2418  166.6247 C.2     1  UNL1        0.0015
     15 C         140.8924  140.5299  165.3504 C.3     1  UNL1        0.0573
     16 N         141.4574  138.7605  159.0971 N.pl3   1  UNL1       -0.2882
     17 C         140.1203  138.7702  158.4174 C.3     1  UNL1        0.1216
     18 C         139.8881  137.9151  157.2070 C.3     1  UNL1        0.1350
     19 C         140.1030  136.9461  156.0824 C.3     1  UNL1        0.0339
     20 C         141.5129  136.4413  156.1686 C.3     1  UNL1        0.0339
     21 C         142.1693  137.0985  157.3463 C.3     1  UNL1        0.1350
     22 C         142.5622  137.8959  158.5665 C.3     1  UNL1        0.1216
     23 O         141.1652  138.0093  157.9881 O.3     1  UNL1       -0.3552
     24 C         143.8598  142.7568  161.3902 C.3     1  UNL1        0.1963
     25 C         143.7434  144.9386  163.4459 C.3     1  UNL1        0.1765
     26 S         143.8016  143.8478  162.4181 S.O2    1  UNL1       -0.0025
     27 O         144.8534  143.1446  163.2238 O.2     1  UNL1       -0.1726
     28 O         142.7497  144.5509  161.6123 O.2     1  UNL1       -0.1726
@<TRIPOS>BOND
     1    25    26    1
     2    26    27    2
     3    26    28    2
     4    26    24    1
     5    24     1    1
     6     1     2   ar
     7     2     3   ar
     8     3    16    1
     9    16    17    1
    10    17    18    1
    11    18    19    1
    12    19    20    1
    13    20    21    1
    14    21    22    1
    15    21    23    1
    16     3     4   ar
    17     4     5   ar
    18     5     7    1
    19     7     8    2
    20     8     9    1
    21     9    10    2
    22    10    11    1
    23    11    12    2
    24    12    13    1
    25    13    14    2
    26    14    15    1
    27     5     6   ar
    28     6     1   ar
    29    22    16    1
    30    15     7    1
    31    23    18    1
    32    14    10    1
@<TRIPOS>MOLECULE
*****
 28 32 0 0 0
SMALL
GASTEIGER

@<TRIPOS>ATOM
      1 C         140.1090  143.4728  164.2429 C.ar    1  UNL1        0.0872
      2 C         140.2023  143.1244  165.6989 C.ar    1  UNL1        0.0508
      3 C         140.8013  141.8152  166.1200 C.ar    1  UNL1        0.1347
      4 N         141.3070  140.8544  165.0851 N.ar    1  UNL1       -0.2122
      5 C         141.2138  141.2028  163.6291 C.ar    1  UNL1        0.1596
      6 N         140.6148  142.5119  163.2080 N.ar    1  UNL1       -0.2293
      7 C         141.7196  140.2419  162.5942 C.2     1  UNL1        0.0181
      8 C         142.6473  139.1321  162.9910 C.2     1  UNL1        0.0006
      9 C         143.1531  138.1712  161.9561 C.2     1  UNL1        0.0186
     10 C         142.7311  138.3203  160.5244 C.2     1  UNL1        0.0777
     11 N         143.0638  137.5315  159.2926 N.2     1  UNL1       -0.2442
     12 C         142.3417  138.1540  158.1346 C.2     1  UNL1        0.0985
     13 C         141.5627  139.3274  158.6506 C.2     1  UNL1        0.0182
     14 C         141.8033  139.4302  160.1276 C.2     1  UNL1        0.0015
     15 C         141.2976  140.3910  161.1625 C.3     1  UNL1        0.0573
     16 N         140.8945  141.4669  167.5761 N.pl3   1  UNL1       -0.2882
     17 C         139.8548  140.5872  168.2048 C.3     1  UNL1        0.1216
     18 C         139.9481  140.2389  169.6608 C.3     1  UNL1        0.1350
     19 C         140.4243  140.1593  171.0810 C.3     1  UNL1        0.0339
     20 C         141.6786  140.9739  171.1955 C.3     1  UNL1        0.0339
     21 C         141.9776  141.5569  169.8463 C.3     1  UNL1        0.1350
     22 C         142.0273  141.9982  168.4033 C.3     1  UNL1        0.1216
     23 O         140.9080  141.1027  168.8977 O.3     1  UNL1       -0.3552
     24 C         139.5101  144.7818  163.8218 C.3     1  UNL1        0.1963
     25 C         140.0483  145.8636  161.0759 C.3     1  UNL1        0.1765
     26 S         139.7792  145.3227  162.4488 S.O2    1  UNL1       -0.0025
     27 O         141.1597  145.7234  162.8773 O.2     1  UNL1       -0.1726
     28 O         138.3986  144.9220  162.0204 O.2     1  UNL1       -0.1726
@<TRIPOS>BOND
     1    25    26    1
     2    26    27    2
     3    26    28    2
     4    26    24    1
     5    24     1    1
     6     1     2   ar
     7     2     3   ar
     8     3    16    1
     9    16    17    1
    10    17    18    1
    11    18    19    1
    12    19    20    1
    13    20    21    1
    14    21    22    1
    15    21    23    1
    16     3     4   ar
    17     4     5   ar
    18     5     7    1
    19     7     8    2
    20     8     9    1
    21     9    10    2
    22    10    11    1
    23    11    12    2
    24    12    13    1
    25    13    14    2
    26    14    15    1
    27     5     6   ar
    28     6     1   ar
    29    22    16    1
    30    15     7    1
    31    23    18    1
    32    14    10    1
@<TRIPOS>MOLECULE
*****
 28 32 0 0 0
SMALL
GASTEIGER

@<TRIPOS>ATOM
      1 C         138.0755  140.3264  157.0342 C.ar    1  UNL1        0.0872
      2 C         139.0436  139.3310  156.4668 C.ar    1  UNL1        0.0508
      3 C         139.8309  138.4433  157.3845 C.ar    1  UNL1        0.1347
      4 N         139.6501  138.5510  158.8697 N.ar    1  UNL1       -0.2122
      5 C         138.6820  139.5464  159.4371 C.ar    1  UNL1        0.1596
      6 N         137.8948  140.4340  158.5195 N.ar    1  UNL1       -0.2293
      7 C         138.5013  139.6541  160.9224 C.2     1  UNL1        0.0181
      8 C         137.8840  140.8857  161.5154 C.2     1  UNL1        0.0006
      9 C         137.7033  140.9934  163.0007 C.2     1  UNL1        0.0186
     10 C         138.1399  139.8693  163.8927 C.2     1  UNL1        0.0777
     11 N         138.0897  139.6918  165.3813 N.2     1  UNL1       -0.2442
     12 C         138.6760  138.3504  165.7082 C.2     1  UNL1        0.0985
     13 C         139.0886  137.6989  164.4216 C.2     1  UNL1        0.0182
     14 C         138.7573  138.6376  163.2996 C.2     1  UNL1        0.0015
     15 C         138.9380  138.5300  161.8144 C.3     1  UNL1        0.0573
     16 N         140.7990  137.4478  156.8170 N.pl3   1  UNL1       -0.2882
     17 C         142.2003  137.3781  157.3476 C.3     1  UNL1        0.1216
     18 C         143.1684  136.3826  156.7801 C.3     1  UNL1        0.1350
     19 C         143.7617  135.2833  155.9499 C.3     1  UNL1        0.0339
     20 C         142.7025  134.7892  155.0097 C.3     1  UNL1        0.0339
     21 C         141.4546  135.5832  155.2588 C.3     1  UNL1        0.1350
     22 C         140.3658  136.5223  155.7191 C.3     1  UNL1        0.1216
     23 O         141.7425  136.5680  156.3530 O.3     1  UNL1       -0.3552
     24 C         137.2882  141.2140  156.1166 C.3     1  UNL1        0.1963
     25 C         135.1845  140.0369  154.3309 C.3     1  UNL1        0.1765
     26 S         136.2363  140.6254  155.2237 S.O2    1  UNL1       -0.0025
     27 O         137.0553  140.9874  154.0203 O.2     1  UNL1       -0.1726
     28 O         135.4173  140.2635  156.4272 O.2     1  UNL1       -0.1726
@<TRIPOS>BOND
     1    25    26    1
     2    26    27    2
     3    26    28    2
     4    26    24    1
     5    24     1    1
     6     1     2   ar
     7     2     3   ar
     8     3    16    1
     9    16    17    1
    10    17    18    1
    11    18    19    1
    12    19    20    1
    13    20    21    1
    14    21    22    1
    15    21    23    1
    16     3     4   ar
    17     4     5   ar
    18     5     7    1
    19     7     8    2
    20     8     9    1
    21     9    10    2
    22    10    11    1
    23    11    12    2
    24    12    13    1
    25    13    14    2
    26    14    15    1
    27     5     6   ar
    28     6     1   ar
    29    22    16    1
    30    15     7    1
    31    23    18    1
    32    14    10    1
@<TRIPOS>MOLECULE
*****
 28 32 0 0 0
SMALL
GASTEIGER

@<TRIPOS>ATOM
      1 C         143.4473  139.7766  157.4704 C.ar    1  UNL1        0.0872
      2 C         143.3406  139.7547  158.9664 C.ar    1  UNL1        0.0508
      3 C         143.0488  138.4673  159.6787 C.ar    1  UNL1        0.1347
      4 N         142.8637  137.2018  158.8950 N.ar    1  UNL1       -0.2122
      5 C         142.9703  137.2237  157.3990 C.ar    1  UNL1        0.1596
      6 N         143.2621  138.5110  156.6867 N.ar    1  UNL1       -0.2293
      7 C         142.7852  135.9581  156.6153 C.2     1  UNL1        0.0181
      8 C         141.6201  135.8181  155.6811 C.2     1  UNL1        0.0006
      9 C         141.4350  134.5525  154.8974 C.2     1  UNL1        0.0186
     10 C         142.4150  133.4269  155.0481 C.2     1  UNL1        0.0777
     11 N         142.4914  132.0707  154.4119 N.2     1  UNL1       -0.2442
     12 C         143.7038  131.3726  154.9529 C.2     1  UNL1        0.0985
     13 C         144.3767  132.2973  155.9236 C.2     1  UNL1        0.0182
     14 C         143.5801  133.5670  155.9824 C.2     1  UNL1        0.0015
     15 C         143.7652  134.8326  156.7660 C.3     1  UNL1        0.0573
     16 N         142.9421  138.4454  161.1749 N.pl3   1  UNL1       -0.2882
     17 C         141.7569  137.8033  161.8328 C.3     1  UNL1        0.1216
     18 C         141.6502  137.7814  163.3290 C.3     1  UNL1        0.1350
     19 C         141.9527  137.9858  164.7838 C.3     1  UNL1        0.0339
     20 C         143.2596  138.7146  164.8876 C.3     1  UNL1        0.0339
     21 C         143.7649  138.9606  163.4970 C.3     1  UNL1        0.1350
     22 C         144.0206  139.0656  162.0128 C.3     1  UNL1        0.1216
     23 O         142.7703  138.3839  162.5336 O.3     1  UNL1       -0.3552
     24 C         143.7390  141.0640  156.7581 C.3     1  UNL1        0.1963
     25 C         146.4127  142.3853  157.0825 C.3     1  UNL1        0.1765
     26 S         145.0759  141.7246  156.9203 S.O2    1  UNL1       -0.0025
     27 O         145.7144  140.6296  156.1182 O.2     1  UNL1       -0.1726
     28 O         144.4374  142.8197  157.7224 O.2     1  UNL1       -0.1726
@<TRIPOS>BOND
     1    25    26    1
     2    26    27    2
     3    26    28    2
     4    26    24    1
     5    24     1    1
     6     1     2   ar
     7     2     3   ar
     8     3    16    1
     9    16    17    1
    10    17    18    1
    11    18    19    1
    12    19    20    1
    13    20    21    1
    14    21    22    1
    15    21    23    1
    16     3     4   ar
    17     4     5   ar
    18     5     7    1
    19     7     8    2
    20     8     9    1
    21     9    10    2
    22    10    11    1
    23    11    12    2
    24    12    13    1
    25    13    14    2
    26    14    15    1
    27     5     6   ar
    28     6     1   ar
    29    22    16    1
    30    15     7    1
    31    23    18    1
    32    14    10    1
@<TRIPOS>MOLECULE
*****
 28 32 0 0 0
SMALL
GASTEIGER

@<TRIPOS>ATOM
      1 C         143.4287  140.8792  160.0827 C.ar    1  UNL1        0.0872
      2 C         143.4356  140.0181  158.8546 C.ar    1  UNL1        0.0508
      3 C         142.5406  138.8169  158.7758 C.ar    1  UNL1        0.1347
      4 N         141.6387  138.4769  159.9251 N.ar    1  UNL1       -0.2122
      5 C         141.6318  139.3381  161.1532 C.ar    1  UNL1        0.1596
      6 N         142.5267  140.5392  161.2321 N.ar    1  UNL1       -0.2293
      7 C         140.7298  138.9980  162.3026 C.2     1  UNL1        0.0181
      8 C         139.7325  137.8857  162.1696 C.2     1  UNL1        0.0006
      9 C         138.8305  137.5456  163.3190 C.2     1  UNL1        0.0186
     10 C         138.9260  138.3180  164.6012 C.2     1  UNL1        0.0777
     11 N         138.1750  138.2117  165.8953 N.2     1  UNL1       -0.2442
     12 C         138.7083  139.2584  166.8280 C.2     1  UNL1        0.0985
     13 C         139.7889  140.0117  166.1104 C.2     1  UNL1        0.0182
     14 C         139.9235  139.4305  164.7342 C.2     1  UNL1        0.0015
     15 C         140.8254  139.7705  163.5848 C.3     1  UNL1        0.0573
     16 N         142.5475  137.9557  157.5475 N.pl3   1  UNL1       -0.2882
     17 C         142.8940  136.5002  157.6542 C.3     1  UNL1        0.1216
     18 C         142.9009  135.6390  156.4260 C.3     1  UNL1        0.1350
     19 C         142.7850  135.1858  155.0008 C.3     1  UNL1        0.0339
     20 C         142.3889  136.3693  154.1688 C.3     1  UNL1        0.0339
     21 C         142.2600  137.5540  155.0796 C.3     1  UNL1        0.1350
     22 C         142.2079  138.5501  156.2129 C.3     1  UNL1        0.1216
     23 O         142.5764  137.1027  156.4747 O.3     1  UNL1       -0.3552
     24 C         144.3236  142.0803  160.1615 C.3     1  UNL1        0.1963
     25 C         144.4900  143.6627  162.7048 C.3     1  UNL1        0.1765
     26 S         144.4068  142.8716  161.4332 S.O2    1  UNL1       -0.0025
     27 O         143.3629  143.8154  160.9142 O.2     1  UNL1       -0.1726
     28 O         145.4508  141.9277  161.9522 O.2     1  UNL1       -0.1726
@<TRIPOS>BOND
     1    25    26    1
     2    26    27    2
     3    26    28    2
     4    26    24    1
     5    24     1    1
     6     1     2   ar
     7     2     3   ar
     8     3    16    1
     9    16    17    1
    10    17    18    1
    11    18    19    1
    12    19    20    1
    13    20    21    1
    14    21    22    1
    15    21    23    1
    16     3     4   ar
    17     4     5   ar
    18     5     7    1
    19     7     8    2
    20     8     9    1
    21     9    10    2
    22    10    11    1
    23    11    12    2
    24    12    13    1
    25    13    14    2
    26    14    15    1
    27     5     6   ar
    28     6     1   ar
    29    22    16    1
    30    15     7    1
    31    23    18    1
    32    14    10    1
