@<TRIPOS>MOLECULE
*****
 27 30 0 0 0
SMALL
GASTEIGER

@<TRIPOS>ATOM
      1 O         138.3473  139.1940  162.5805 O.2     1  UNL1       -0.2522
      2 C         139.8026  138.8375  162.5101 C.2     1  UNL1        0.3078
      3 N         140.6185  138.7643  163.7667 N.am    1  UNL1       -0.2681
      4 N         140.4421  138.5541  161.1831 N.am    1  UNL1       -0.2611
      5 C         139.6263  138.6273  159.9266 C.3     1  UNL1        0.1123
      6 C         140.2657  138.3439  158.5997 C.3     1  UNL1        0.0940
      7 N         141.7211  137.9874  158.5293 N.3     1  UNL1       -0.2697
      8 C         142.5369  137.9143  159.7859 C.3     1  UNL1        0.0940
      9 C         141.8974  138.1976  161.1128 C.3     1  UNL1        0.1123
     10 H         141.5736  138.5303  163.7205 H       1  UNL1        0.1564
     11 C         139.9790  139.0477  165.0937 C.ar    1  UNL1        0.0524
     12 C         140.5241  140.1345  165.9721 C.ar    1  UNL1        0.0148
     13 C         139.8846  140.4178  167.2990 C.ar    1  UNL1        0.0021
     14 C         138.7001  139.6143  167.7475 C.ar    1  UNL1        0.0115
     15 C         138.1550  138.5275  166.8691 C.ar    1  UNL1        0.0589
     16 CL        136.9704  137.7240  167.3177 Cl      1  UNL1       -0.0822
     17 C         138.7944  138.2442  165.5422 C.ar    1  UNL1        0.0261
     18 C         142.3605  137.7041  157.2023 C.3     1  UNL1        0.0735
     19 C         142.3030  136.3221  156.6219 C.3     1  UNL1        0.0320
     20 C         141.2376  135.9705  155.6263 C.3     1  UNL1        0.0042
     21 C         141.1801  134.5886  155.0459 C.3     1  UNL1        0.0174
     22 C         142.1881  133.5582  155.4611 C.3     1  UNL1        0.0720
     23 N         143.2535  133.9098  156.4567 N.3     1  UNL1       -0.2739
     24 C         143.3110  135.2918  157.0371 C.3     1  UNL1        0.0734
     25 C         144.2615  132.8795  156.8718 C.3     1  UNL1        0.0576
     26 C         145.0693  131.6540  156.5626 C.3     1  UNL1        0.0173
     27 C         145.1995  132.3203  157.9002 C.3     1  UNL1        0.0173
@<TRIPOS>BOND
     1     1     2    2
     2     2     3   am
     3     3    11    1
     4    11    12   ar
     5    12    13   ar
     6    13    14   ar
     7    14    15   ar
     8    15    16    1
     9    15    17   ar
    10     2     4   am
    11     4     5    1
    12     5     6    1
    13     6     7    1
    14     7    18    1
    15    19    18    1
    16    19    20    1
    17    20    21    1
    18    21    22    1
    19    22    23    1
    20    23    25    1
    21    25    26    1
    22    26    27    1
    23    23    24    1
    24     7     8    1
    25     8     9    1
    26    17    11   ar
    27     9     4    1
    28    24    19    1
    29    27    25    1
    30     3    10    1
@<TRIPOS>MOLECULE
*****
 27 30 0 0 0
SMALL
GASTEIGER

@<TRIPOS>ATOM
      1 O         138.6092  139.2369  161.9984 O.2     1  UNL1       -0.2522
      2 C         140.0153  138.7153  162.0257 C.2     1  UNL1        0.3078
      3 N         140.6911  138.4491  163.3381 N.am    1  UNL1       -0.2681
      4 N         140.7456  138.4599  160.7406 N.am    1  UNL1       -0.2611
      5 C         140.0698  138.7261  159.4282 C.3     1  UNL1        0.1123
      6 C         140.8001  138.4706  158.1432 C.3     1  UNL1        0.0940
      7 N         142.2062  137.9490  158.1705 N.3     1  UNL1       -0.2697
      8 C         142.8821  137.6828  159.4829 C.3     1  UNL1        0.0940
      9 C         142.1517  137.9382  160.7679 C.3     1  UNL1        0.1123
     10 H         141.6140  138.1067  163.3560 H       1  UNL1        0.1564
     11 C         139.9608  138.7045  164.6232 C.ar    1  UNL1        0.0524
     12 C         138.8360  137.8033  165.0385 C.ar    1  UNL1        0.0148
     13 C         138.1057  138.0587  166.3236 C.ar    1  UNL1        0.0021
     14 C         138.5003  139.2154  167.1933 C.ar    1  UNL1        0.0115
     15 C         139.6252  140.1166  166.7780 C.ar    1  UNL1        0.0589
     16 CL        140.0197  141.2732  167.6478 Cl      1  UNL1       -0.0822
     17 C         140.3554  139.8611  165.4930 C.ar    1  UNL1        0.0261
     18 C         142.9366  137.6936  156.8854 C.3     1  UNL1        0.0735
     19 C         142.8054  136.3662  156.1992 C.3     1  UNL1        0.0320
     20 C         141.8972  136.2209  155.0144 C.3     1  UNL1        0.0042
     21 C         141.7660  134.8935  154.3283 C.3     1  UNL1        0.0174
     22 C         142.5432  133.7114  154.8270 C.3     1  UNL1        0.0720
     23 N         143.4515  133.8567  156.0119 N.3     1  UNL1       -0.2739
     24 C         143.5826  135.1842  156.6980 C.3     1  UNL1        0.0734
     25 C         144.2286  132.6747  156.5106 C.3     1  UNL1        0.0576
     26 C         144.7884  131.8748  157.6493 C.3     1  UNL1        0.0173
     27 C         145.0149  131.4272  156.2357 C.3     1  UNL1        0.0173
@<TRIPOS>BOND
     1     1     2    2
     2     2     3   am
     3     3    11    1
     4    11    12   ar
     5    12    13   ar
     6    13    14   ar
     7    14    15   ar
     8    15    16    1
     9    15    17   ar
    10     2     4   am
    11     4     5    1
    12     5     6    1
    13     6     7    1
    14     7    18    1
    15    19    18    1
    16    19    20    1
    17    20    21    1
    18    21    22    1
    19    22    23    1
    20    23    25    1
    21    25    26    1
    22    26    27    1
    23    23    24    1
    24     7     8    1
    25     8     9    1
    26    17    11   ar
    27     9     4    1
    28    24    19    1
    29    27    25    1
    30     3    10    1
@<TRIPOS>MOLECULE
*****
 27 30 0 0 0
SMALL
GASTEIGER

@<TRIPOS>ATOM
      1 O         141.4223  139.8053  161.5970 O.2     1  UNL1       -0.2522
      2 C         140.3909  139.4484  160.5679 C.2     1  UNL1        0.3078
      3 N         138.9606  139.8537  160.7676 N.am    1  UNL1       -0.2681
      4 N         140.7900  138.6860  159.3392 N.am    1  UNL1       -0.2611
      5 C         142.2203  138.2807  159.1396 C.3     1  UNL1        0.1123
      6 C         142.6193  137.5184  157.9109 C.3     1  UNL1        0.0940
      7 N         141.5879  137.1614  156.8819 N.3     1  UNL1       -0.2697
      8 C         140.1576  137.5667  157.0815 C.3     1  UNL1        0.0940
      9 C         139.7587  138.3290  158.3102 C.3     1  UNL1        0.1123
     10 H         138.2837  139.6194  160.0922 H       1  UNL1        0.1564
     11 C         138.5616  140.6160  161.9963 C.ar    1  UNL1        0.0524
     12 C         138.4270  139.9043  163.3098 C.ar    1  UNL1        0.0148
     13 C         138.0279  140.6666  164.5384 C.ar    1  UNL1        0.0021
     14 C         137.7635  142.1407  164.4535 C.ar    1  UNL1        0.0115
     15 C         137.8981  142.8524  163.1400 C.ar    1  UNL1        0.0589
     16 CL        137.6337  144.3265  163.0552 Cl      1  UNL1       -0.0822
     17 C         138.2972  142.0901  161.9114 C.ar    1  UNL1        0.0261
     18 C         141.9870  136.3991  155.6532 C.3     1  UNL1        0.0735
     19 C         142.0865  134.9031  155.6980 C.3     1  UNL1        0.0320
     20 C         141.1188  134.0633  154.9182 C.3     1  UNL1        0.0042
     21 C         141.2183  132.5673  154.9631 C.3     1  UNL1        0.0174
     22 C         142.2857  131.9110  155.7878 C.3     1  UNL1        0.0720
     23 N         143.2534  132.7508  156.5677 N.3     1  UNL1       -0.2739
     24 C         143.1538  134.2469  156.5228 C.3     1  UNL1        0.0734
     25 C         144.3207  132.0947  157.3925 C.3     1  UNL1        0.0576
     26 C         145.6418  132.1627  158.0995 C.3     1  UNL1        0.0173
     27 C         144.8482  130.8900  158.1140 C.3     1  UNL1        0.0173
@<TRIPOS>BOND
     1     1     2    2
     2     2     3   am
     3     3    11    1
     4    11    12   ar
     5    12    13   ar
     6    13    14   ar
     7    14    15   ar
     8    15    16    1
     9    15    17   ar
    10     2     4   am
    11     4     5    1
    12     5     6    1
    13     6     7    1
    14     7    18    1
    15    19    18    1
    16    19    20    1
    17    20    21    1
    18    21    22    1
    19    22    23    1
    20    23    25    1
    21    25    26    1
    22    26    27    1
    23    23    24    1
    24     7     8    1
    25     8     9    1
    26    17    11   ar
    27     9     4    1
    28    24    19    1
    29    27    25    1
    30     3    10    1
@<TRIPOS>MOLECULE
*****
 27 30 0 0 0
SMALL
GASTEIGER

@<TRIPOS>ATOM
      1 O         139.6386  145.8030  160.0628 O.2     1  UNL1       -0.2522
      2 C         140.7308  144.8321  159.7246 C.2     1  UNL1        0.3078
      3 N         140.9169  144.3764  158.3077 N.am    1  UNL1       -0.2681
      4 N         141.6369  144.3168  160.8033 N.am    1  UNL1       -0.2611
      5 C         141.4507  144.7725  162.2202 C.3     1  UNL1        0.1123
      6 C         142.3568  144.2573  163.2989 C.3     1  UNL1        0.0940
      7 N         143.4490  143.2864  162.9606 N.3     1  UNL1       -0.2697
      8 C         143.6351  142.8306  161.5437 C.3     1  UNL1        0.0940
      9 C         142.7290  143.3459  160.4651 C.3     1  UNL1        0.1123
     10 H         141.6337  143.7391  158.0857 H       1  UNL1        0.1564
     11 C         140.0108  144.8916  157.2290 C.ar    1  UNL1        0.0524
     12 C         139.0474  143.9627  156.5515 C.ar    1  UNL1        0.0148
     13 C         138.1414  144.4779  155.4729 C.ar    1  UNL1        0.0021
     14 C         138.1988  145.9221  155.0716 C.ar    1  UNL1        0.0115
     15 C         139.1621  146.8511  155.7490 C.ar    1  UNL1        0.0589
     16 CL        139.2195  148.2953  155.3478 Cl      1  UNL1       -0.0822
     17 C         140.0681  146.3358  156.8277 C.ar    1  UNL1        0.0261
     18 C         144.3551  142.7711  164.0394 C.3     1  UNL1        0.0735
     19 C         143.7937  141.9480  165.1607 C.3     1  UNL1        0.0320
     20 C         143.5665  140.4775  164.9708 C.3     1  UNL1        0.0042
     21 C         143.0052  139.6544  166.0921 C.3     1  UNL1        0.0174
     22 C         142.6710  140.3018  167.4033 C.3     1  UNL1        0.0720
     23 N         142.8981  141.7723  167.5932 N.3     1  UNL1       -0.2739
     24 C         143.4595  142.5954  166.4718 C.3     1  UNL1        0.0734
     25 C         142.5639  142.4196  168.9043 C.3     1  UNL1        0.0576
     26 C         141.5677  143.0809  169.8100 C.3     1  UNL1        0.0173
     27 C         142.9813  142.8797  170.2697 C.3     1  UNL1        0.0173
@<TRIPOS>BOND
     1     1     2    2
     2     2     3   am
     3     3    11    1
     4    11    12   ar
     5    12    13   ar
     6    13    14   ar
     7    14    15   ar
     8    15    16    1
     9    15    17   ar
    10     2     4   am
    11     4     5    1
    12     5     6    1
    13     6     7    1
    14     7    18    1
    15    19    18    1
    16    19    20    1
    17    20    21    1
    18    21    22    1
    19    22    23    1
    20    23    25    1
    21    25    26    1
    22    26    27    1
    23    23    24    1
    24     7     8    1
    25     8     9    1
    26    17    11   ar
    27     9     4    1
    28    24    19    1
    29    27    25    1
    30     3    10    1
@<TRIPOS>MOLECULE
*****
 27 30 0 0 0
SMALL
GASTEIGER

@<TRIPOS>ATOM
      1 O         139.6733  140.3183  157.3086 O.2     1  UNL1       -0.2522
      2 C         138.5990  140.1616  158.3436 C.2     1  UNL1        0.3078
      3 N         137.2131  140.6648  158.0681 N.am    1  UNL1       -0.2681
      4 N         138.9106  139.5016  159.6541 N.am    1  UNL1       -0.2611
      5 C         140.2965  138.9984  159.9296 C.3     1  UNL1        0.1123
      6 C         140.6080  138.3384  161.2401 C.3     1  UNL1        0.0940
      7 N         139.5337  138.1817  162.2750 N.3     1  UNL1       -0.2697
      8 C         138.1478  138.6849  161.9996 C.3     1  UNL1        0.0940
      9 C         137.8362  139.3449  160.6891 C.3     1  UNL1        0.1123
     10 H         136.5079  140.5620  158.7474 H       1  UNL1        0.1564
     11 C         136.9014  141.3248  156.7576 C.ar    1  UNL1        0.0524
     12 C         136.2086  140.5520  155.6747 C.ar    1  UNL1        0.0148
     13 C         135.8970  141.2120  154.3643 C.ar    1  UNL1        0.0021
     14 C         136.2783  142.6448  154.1367 C.ar    1  UNL1        0.0115
     15 C         136.9712  143.4176  155.2196 C.ar    1  UNL1        0.0589
     16 CL        137.3525  144.8504  154.9921 Cl      1  UNL1       -0.0822
     17 C         137.2827  142.7576  156.5300 C.ar    1  UNL1        0.0261
     18 C         139.8453  137.5217  163.5856 C.3     1  UNL1        0.0735
     19 C         139.6960  138.2888  164.8658 C.3     1  UNL1        0.0320
     20 C         138.4332  138.1725  165.6670 C.3     1  UNL1        0.0042
     21 C         138.2840  138.9396  166.9473 C.3     1  UNL1        0.0174
     22 C         139.3975  139.8232  167.4265 C.3     1  UNL1        0.0720
     23 N         140.6603  139.9395  166.6253 N.3     1  UNL1       -0.2739
     24 C         140.8095  139.1723  165.3450 C.3     1  UNL1        0.0734
     25 C         141.7738  140.8229  167.1044 C.3     1  UNL1        0.0576
     26 C         142.8822  141.7902  166.8117 C.3     1  UNL1        0.0173
     27 C         142.5940  141.3858  168.2271 C.3     1  UNL1        0.0173
@<TRIPOS>BOND
     1     1     2    2
     2     2     3   am
     3     3    11    1
     4    11    12   ar
     5    12    13   ar
     6    13    14   ar
     7    14    15   ar
     8    15    16    1
     9    15    17   ar
    10     2     4   am
    11     4     5    1
    12     5     6    1
    13     6     7    1
    14     7    18    1
    15    19    18    1
    16    19    20    1
    17    20    21    1
    18    21    22    1
    19    22    23    1
    20    23    25    1
    21    25    26    1
    22    26    27    1
    23    23    24    1
    24     7     8    1
    25     8     9    1
    26    17    11   ar
    27     9     4    1
    28    24    19    1
    29    27    25    1
    30     3    10    1
@<TRIPOS>MOLECULE
*****
 27 30 0 0 0
SMALL
GASTEIGER

@<TRIPOS>ATOM
      1 O         145.4310  140.1958  156.2312 O.2     1  UNL1       -0.2522
      2 C         145.2427  141.3968  157.1100 C.2     1  UNL1        0.3078
      3 N         146.0432  142.6407  156.8618 N.am    1  UNL1       -0.2681
      4 N         144.2537  141.3537  158.2371 N.am    1  UNL1       -0.2611
      5 C         143.4532  140.1097  158.4853 C.3     1  UNL1        0.1123
      6 C         142.4643  140.0667  159.6124 C.3     1  UNL1        0.0940
      7 N         142.2760  141.2676  160.4912 N.3     1  UNL1       -0.2697
      8 C         143.0765  142.5116  160.2430 C.3     1  UNL1        0.0940
      9 C         144.0654  142.5546  159.1159 C.3     1  UNL1        0.1123
     10 H         145.9195  143.4289  157.4386 H       1  UNL1        0.1564
     11 C         147.0321  142.6838  155.7347 C.ar    1  UNL1        0.0524
     12 C         146.6854  143.3934  154.4595 C.ar    1  UNL1        0.0148
     13 C         147.6743  143.4365  153.3325 C.ar    1  UNL1        0.0021
     14 C         149.0099  142.7700  153.4808 C.ar    1  UNL1        0.0115
     15 C         149.3566  142.0604  154.7560 C.ar    1  UNL1        0.0589
     16 CL        150.6922  141.3939  154.9043 Cl      1  UNL1       -0.0822
     17 C         148.3677  142.0173  155.8830 C.ar    1  UNL1        0.0261
     18 C         141.2870  141.2245  161.6182 C.3     1  UNL1        0.0735
     19 C         141.1840  140.0006  162.4792 C.3     1  UNL1        0.0320
     20 C         140.2431  138.8950  162.1017 C.3     1  UNL1        0.0042
     21 C         140.1400  137.6711  162.9626 C.3     1  UNL1        0.0174
     22 C         140.9779  137.5526  164.2012 C.3     1  UNL1        0.0720
     23 N         141.9188  138.6581  164.5788 N.3     1  UNL1       -0.2739
     24 C         142.0218  139.8821  163.7177 C.3     1  UNL1        0.0734
     25 C         142.7566  138.5397  165.8173 C.3     1  UNL1        0.0576
     26 C         143.9134  137.9267  166.5493 C.3     1  UNL1        0.0173
     27 C         143.0510  138.9477  167.2304 C.3     1  UNL1        0.0173
@<TRIPOS>BOND
     1     1     2    2
     2     2     3   am
     3     3    11    1
     4    11    12   ar
     5    12    13   ar
     6    13    14   ar
     7    14    15   ar
     8    15    16    1
     9    15    17   ar
    10     2     4   am
    11     4     5    1
    12     5     6    1
    13     6     7    1
    14     7    18    1
    15    19    18    1
    16    19    20    1
    17    20    21    1
    18    21    22    1
    19    22    23    1
    20    23    25    1
    21    25    26    1
    22    26    27    1
    23    23    24    1
    24     7     8    1
    25     8     9    1
    26    17    11   ar
    27     9     4    1
    28    24    19    1
    29    27    25    1
    30     3    10    1
@<TRIPOS>MOLECULE
*****
 27 30 0 0 0
SMALL
GASTEIGER

@<TRIPOS>ATOM
      1 O         144.4160  139.8785  164.1869 O.2     1  UNL1       -0.2522
      2 C         142.9766  139.9250  163.7676 C.2     1  UNL1        0.3078
      3 N         141.9179  140.3030  164.7607 N.am    1  UNL1       -0.2681
      4 N         142.5958  139.5935  162.3551 N.am    1  UNL1       -0.2611
      5 C         143.6544  139.2154  161.3619 C.3     1  UNL1        0.1123
      6 C         143.2736  138.8839  159.9495 C.3     1  UNL1        0.0940
      7 N         141.8342  138.9304  159.5302 N.3     1  UNL1       -0.2697
      8 C         140.7755  139.3084  160.5233 C.3     1  UNL1        0.0940
      9 C         141.1564  139.6399  161.9357 C.3     1  UNL1        0.1123
     10 H         140.9732  140.3335  164.4855 H       1  UNL1        0.1564
     11 C         142.2987  140.6345  166.1732 C.ar    1  UNL1        0.0524
     12 C         142.7654  142.0174  166.5193 C.ar    1  UNL1        0.0148
     13 C         143.1461  142.3489  167.9318 C.ar    1  UNL1        0.0021
     14 C         143.0602  141.2975  168.9982 C.ar    1  UNL1        0.0115
     15 C         142.5936  139.9146  168.6521 C.ar    1  UNL1        0.0589
     16 CL        142.5077  138.8632  169.7185 Cl      1  UNL1       -0.0822
     17 C         142.2128  139.5831  167.2396 C.ar    1  UNL1        0.0261
     18 C         141.4534  138.5989  158.1176 C.3     1  UNL1        0.0735
     19 C         142.4328  137.9014  157.2209 C.3     1  UNL1        0.0320
     20 C         143.2367  138.6906  156.2305 C.3     1  UNL1        0.0042
     21 C         144.2161  137.9932  155.3337 C.3     1  UNL1        0.0174
     22 C         144.3916  136.5064  155.4273 C.3     1  UNL1        0.0720
     23 N         143.5878  135.7171  156.4177 N.3     1  UNL1       -0.2739
     24 C         142.6083  136.4147  157.3145 C.3     1  UNL1        0.0734
     25 C         143.7633  134.2304  156.5114 C.3     1  UNL1        0.0576
     26 C         144.3038  133.0288  157.2282 C.3     1  UNL1        0.0173
     27 C         143.5269  132.8570  155.9566 C.3     1  UNL1        0.0173
@<TRIPOS>BOND
     1     1     2    2
     2     2     3   am
     3     3    11    1
     4    11    12   ar
     5    12    13   ar
     6    13    14   ar
     7    14    15   ar
     8    15    16    1
     9    15    17   ar
    10     2     4   am
    11     4     5    1
    12     5     6    1
    13     6     7    1
    14     7    18    1
    15    19    18    1
    16    19    20    1
    17    20    21    1
    18    21    22    1
    19    22    23    1
    20    23    25    1
    21    25    26    1
    22    26    27    1
    23    23    24    1
    24     7     8    1
    25     8     9    1
    26    17    11   ar
    27     9     4    1
    28    24    19    1
    29    27    25    1
    30     3    10    1
@<TRIPOS>MOLECULE
*****
 27 30 0 0 0
SMALL
GASTEIGER

@<TRIPOS>ATOM
      1 O         142.2765  145.1508  159.3970 O.2     1  UNL1       -0.2522
      2 C         140.8614  144.8970  159.8250 C.2     1  UNL1        0.3078
      3 N         139.7594  144.8920  158.8074 N.am    1  UNL1       -0.2681
      4 N         140.5484  144.6481  161.2708 N.am    1  UNL1       -0.2611
      5 C         141.6504  144.6530  162.2884 C.3     1  UNL1        0.1123
      6 C         141.3373  144.4042  163.7341 C.3     1  UNL1        0.0940
      7 N         139.9223  144.1504  164.1622 N.3     1  UNL1       -0.2697
      8 C         138.8203  144.1454  163.1446 C.3     1  UNL1        0.0940
      9 C         139.1334  144.3943  161.6989 C.3     1  UNL1        0.1123
     10 H         138.8307  144.7254  159.0884 H       1  UNL1        0.1564
     11 C         140.0725  145.1409  157.3617 C.ar    1  UNL1        0.0524
     12 C         140.6529  144.0432  156.5202 C.ar    1  UNL1        0.0148
     13 C         140.9659  144.2921  155.0746 C.ar    1  UNL1        0.0021
     14 C         140.6984  145.6387  154.4703 C.ar    1  UNL1        0.0115
     15 C         140.1180  146.7364  155.3118 C.ar    1  UNL1        0.0589
     16 CL        139.8506  148.0830  154.7075 Cl      1  UNL1       -0.0822
     17 C         139.8050  146.4875  156.7574 C.ar    1  UNL1        0.0261
     18 C         139.6093  143.9015  165.6079 C.3     1  UNL1        0.0735
     19 C         140.0168  142.6096  166.2519 C.3     1  UNL1        0.0320
     20 C         140.6748  142.6183  167.5999 C.3     1  UNL1        0.0042
     21 C         141.0823  141.3263  168.2439 C.3     1  UNL1        0.0174
     22 C         140.8318  140.0256  167.5399 C.3     1  UNL1        0.0720
     23 N         140.1738  140.0169  166.1920 N.3     1  UNL1       -0.2739
     24 C         139.7663  141.3090  165.5480 C.3     1  UNL1        0.0734
     25 C         139.9233  138.7163  165.4880 C.3     1  UNL1        0.0576
     26 C         138.9722  137.6569  165.0159 C.3     1  UNL1        0.0173
     27 C         140.4406  137.5229  164.7408 C.3     1  UNL1        0.0173
@<TRIPOS>BOND
     1     1     2    2
     2     2     3   am
     3     3    11    1
     4    11    12   ar
     5    12    13   ar
     6    13    14   ar
     7    14    15   ar
     8    15    16    1
     9    15    17   ar
    10     2     4   am
    11     4     5    1
    12     5     6    1
    13     6     7    1
    14     7    18    1
    15    19    18    1
    16    19    20    1
    17    20    21    1
    18    21    22    1
    19    22    23    1
    20    23    25    1
    21    25    26    1
    22    26    27    1
    23    23    24    1
    24     7     8    1
    25     8     9    1
    26    17    11   ar
    27     9     4    1
    28    24    19    1
    29    27    25    1
    30     3    10    1
@<TRIPOS>MOLECULE
*****
 27 30 0 0 0
SMALL
GASTEIGER

@<TRIPOS>ATOM
      1 O         139.6000  146.1128  160.2691 O.2     1  UNL1       -0.2522
      2 C         140.6138  145.0125  160.1613 C.2     1  UNL1        0.3078
      3 N         140.9437  144.4253  158.8211 N.am    1  UNL1       -0.2681
      4 N         141.2976  144.4994  161.3939 N.am    1  UNL1       -0.2611
      5 C         140.9676  145.0865  162.7342 C.3     1  UNL1        0.1123
      6 C         141.6514  144.5734  163.9666 C.3     1  UNL1        0.0940
      7 N         142.6652  143.4731  163.8589 N.3     1  UNL1       -0.2697
      8 C         142.9951  142.8859  162.5186 C.3     1  UNL1        0.0940
      9 C         142.3113  143.3990  161.2861 C.3     1  UNL1        0.1123
     10 H         141.6091  143.7032  158.7504 H       1  UNL1        0.1564
     11 C         140.2599  144.9385  157.5885 C.ar    1  UNL1        0.0524
     12 C         140.6667  146.2563  156.9987 C.ar    1  UNL1        0.0148
     13 C         139.9829  146.7693  155.7662 C.ar    1  UNL1        0.0021
     14 C         138.8923  145.9646  155.1235 C.ar    1  UNL1        0.0115
     15 C         138.4856  144.6468  155.7133 C.ar    1  UNL1        0.0589
     16 CL        137.3950  143.8421  155.0706 Cl      1  UNL1       -0.0822
     17 C         139.1694  144.1337  156.9458 C.ar    1  UNL1        0.0261
     18 C         143.3490  142.9599  165.0915 C.3     1  UNL1        0.0735
     19 C         142.5885  142.1249  166.0785 C.3     1  UNL1        0.0320
     20 C         142.9753  142.1383  167.5277 C.3     1  UNL1        0.0042
     21 C         142.2148  141.3032  168.5147 C.3     1  UNL1        0.0174
     22 C         141.0674  140.4547  168.0525 C.3     1  UNL1        0.0720
     23 N         140.6806  140.4412  166.6033 N.3     1  UNL1       -0.2739
     24 C         141.4412  141.2764  165.6163 C.3     1  UNL1        0.0734
     25 C         139.5333  139.5927  166.1411 C.3     1  UNL1        0.0576
     26 C         138.1291  139.0970  166.3211 C.3     1  UNL1        0.0173
     27 C         138.9503  138.6188  165.1605 C.3     1  UNL1        0.0173
@<TRIPOS>BOND
     1     1     2    2
     2     2     3   am
     3     3    11    1
     4    11    12   ar
     5    12    13   ar
     6    13    14   ar
     7    14    15   ar
     8    15    16    1
     9    15    17   ar
    10     2     4   am
    11     4     5    1
    12     5     6    1
    13     6     7    1
    14     7    18    1
    15    19    18    1
    16    19    20    1
    17    20    21    1
    18    21    22    1
    19    22    23    1
    20    23    25    1
    21    25    26    1
    22    26    27    1
    23    23    24    1
    24     7     8    1
    25     8     9    1
    26    17    11   ar
    27     9     4    1
    28    24    19    1
    29    27    25    1
    30     3    10    1
