@<TRIPOS>MOLECULE
*****
 29 33 0 0 0
SMALL
GASTEIGER

@<TRIPOS>ATOM
      1 C         138.7026  140.6430  157.1044 C.ar    1  UNL1        0.0741
      2 C         139.8836  140.8727  156.2087 C.ar    1  UNL1        0.0062
      3 C         139.6764  141.1288  154.7453 C.ar    1  UNL1        0.0034
      4 C         138.2882  141.1552  154.1778 C.ar    1  UNL1        0.0392
      5 C         137.1072  140.9255  155.0735 C.ar    1  UNL1        0.1662
      6 O         135.6324  140.8929  154.8016 O.2     1  UNL1       -0.4237
      7 C         134.9282  140.6167  156.0969 C.ar    1  UNL1        0.2925
      8 N         135.9677  140.4785  157.1694 N.ar    1  UNL1       -0.1945
      9 C         137.3144  140.6694  156.5369 C.ar    1  UNL1        0.1245
     10 N         133.4448  140.4993  156.2864 N.pl3   1  UNL1       -0.2585
     11 C         132.5145  141.3375  155.4605 C.3     1  UNL1        0.1272
     12 C         131.0312  141.2200  155.6500 C.3     1  UNL1        0.1637
     13 O         130.4781  140.2644  156.6654 O.3     1  UNL1       -0.3501
     14 C         131.4084  139.4263  157.4913 C.3     1  UNL1        0.1637
     15 C         132.8917  139.5437  157.3017 C.3     1  UNL1        0.1272
     16 N         137.7845  139.8505  159.4021 N.am    1  UNL1       -0.3024
     17 C         138.9099  140.3869  158.5679 C.2     1  UNL1        0.2474
     18 O         140.2423  140.6672  159.1970 O.2     1  UNL1       -0.2701
     19 H         136.9100  139.6665  158.9891 H       1  UNL1        0.1497
     20 C         138.1509  139.2910  161.5345 C.3     1  UNL1        0.0896
     21 N         138.1988  139.3383  162.3289 N.3     1  UNL1       -0.2740
     22 C         138.6989  138.0025  162.7931 C.3     1  UNL1        0.0591
     23 C         138.9061  137.7464  164.2564 C.3     1  UNL1        0.0161
     24 C         138.6131  138.8261  165.2556 C.3     1  UNL1        0.0028
     25 C         138.1130  140.1619  164.7914 C.3     1  UNL1        0.0161
     26 C         137.9058  140.4180  163.3280 C.3     1  UNL1        0.0591
     27 C         137.6987  140.6741  161.8647 C.3     1  UNL1        0.0356
     28 C         137.9917  139.5944  160.8654 C.3     1  UNL1        0.0745
     29 C         138.4918  138.2585  161.3296 C.3     1  UNL1        0.0356
@<TRIPOS>BOND
     1    20    21    1
     2    21    22    1
     3    22    23    1
     4    23    24    1
     5    24    25    1
     6    26    25    1
     7    26    27    1
     8    27    28    1
     9    28    16    1
    10    16    17   am
    11    17    18    2
    12    17     1    1
    13     1     2   ar
    14     2     3   ar
    15     3     4   ar
    16     4     5   ar
    17     5     6   ar
    18     6     7   ar
    19     7    10    1
    20    10    11    1
    21    11    12    1
    22    12    13    1
    23    13    14    1
    24    14    15    1
    25     7     8   ar
    26     8     9   ar
    27    28    29    1
    28    26    21    1
    29     9     1   ar
    30    29    22    1
    31     9     5   ar
    32    15    10    1
    33    16    19    1
@<TRIPOS>MOLECULE
*****
 29 33 0 0 0
SMALL
GASTEIGER

@<TRIPOS>ATOM
      1 C         142.8003  138.7995  156.5642 C.ar    1  UNL1        0.0741
      2 C         142.0248  139.4280  155.4446 C.ar    1  UNL1        0.0062
      3 C         141.4716  140.8135  155.6008 C.ar    1  UNL1        0.0034
      4 C         141.6938  141.5704  156.8766 C.ar    1  UNL1        0.0392
      5 C         142.4693  140.9419  157.9962 C.ar    1  UNL1        0.1662
      6 O         142.8462  141.4405  159.3597 O.2     1  UNL1       -0.4237
      7 C         143.6324  140.3632  160.0463 C.ar    1  UNL1        0.2925
      8 N         143.7414  139.1988  159.1071 N.ar    1  UNL1       -0.1945
      9 C         143.0225  139.5565  157.8400 C.ar    1  UNL1        0.1245
     10 N         144.2085  140.4374  161.4293 N.pl3   1  UNL1       -0.2585
     11 C         144.9414  141.6692  161.8715 C.3     1  UNL1        0.1272
     12 C         145.5174  141.7433  163.2544 C.3     1  UNL1        0.1637
     13 O         145.3605  140.5856  164.1953 O.3     1  UNL1       -0.3501
     14 C         144.6276  139.3539  163.7532 C.3     1  UNL1        0.1637
     15 C         144.0516  139.2797  162.3702 C.3     1  UNL1        0.1272
     16 N         142.5612  136.2321  156.8827 N.am    1  UNL1       -0.3024
     17 C         143.3536  137.4140  156.4080 C.2     1  UNL1        0.2474
     18 O         144.6991  137.2105  155.7772 O.2     1  UNL1       -0.2701
     19 H         141.6781  136.3658  157.2968 H       1  UNL1        0.1497
     20 C         143.4507  134.1826  156.8312 C.3     1  UNL1        0.0896
     21 N         143.6677  133.4612  156.5704 N.3     1  UNL1       -0.2740
     22 C         144.4046  132.8154  157.7062 C.3     1  UNL1        0.0591
     23 C         144.9578  131.4299  157.5501 C.3     1  UNL1        0.0161
     24 C         144.7741  130.6903  156.2582 C.3     1  UNL1        0.0028
     25 C         144.0372  131.3360  155.1224 C.3     1  UNL1        0.0161
     26 C         143.4840  132.7215  155.2785 C.3     1  UNL1        0.0591
     27 C         142.9308  134.1069  155.4347 C.3     1  UNL1        0.0356
     28 C         143.1144  134.8467  156.7266 C.3     1  UNL1        0.0745
     29 C         143.8513  134.2009  157.8624 C.3     1  UNL1        0.0356
@<TRIPOS>BOND
     1    20    21    1
     2    21    22    1
     3    22    23    1
     4    23    24    1
     5    24    25    1
     6    26    25    1
     7    26    27    1
     8    27    28    1
     9    28    16    1
    10    16    17   am
    11    17    18    2
    12    17     1    1
    13     1     2   ar
    14     2     3   ar
    15     3     4   ar
    16     4     5   ar
    17     5     6   ar
    18     6     7   ar
    19     7    10    1
    20    10    11    1
    21    11    12    1
    22    12    13    1
    23    13    14    1
    24    14    15    1
    25     7     8   ar
    26     8     9   ar
    27    28    29    1
    28    26    21    1
    29     9     1   ar
    30    29    22    1
    31     9     5   ar
    32    15    10    1
    33    16    19    1
@<TRIPOS>MOLECULE
*****
 29 33 0 0 0
SMALL
GASTEIGER

@<TRIPOS>ATOM
      1 C         142.4970  138.3919  157.3167 C.ar    1  UNL1        0.0741
      2 C         142.2832  139.4963  156.3243 C.ar    1  UNL1        0.0062
      3 C         142.3490  139.2065  154.8541 C.ar    1  UNL1        0.0034
      4 C         142.6286  137.8124  154.3762 C.ar    1  UNL1        0.0392
      5 C         142.8424  136.7081  155.3685 C.ar    1  UNL1        0.1662
      6 O         143.1336  135.2467  155.1966 O.2     1  UNL1       -0.4237
      7 C         143.2478  134.6333  156.5607 C.ar    1  UNL1        0.2925
      8 N         143.0271  135.7155  157.5756 N.ar    1  UNL1       -0.1945
      9 C         142.7766  136.9979  156.8387 C.ar    1  UNL1        0.1245
     10 N         143.5326  133.1908  156.8577 N.pl3   1  UNL1       -0.2585
     11 C         142.6259  132.1219  156.3237 C.3     1  UNL1        0.1272
     12 C         142.9107  130.6795  156.6207 C.3     1  UNL1        0.1637
     13 O         144.1023  130.3060  157.4517 O.3     1  UNL1       -0.3501
     14 C         145.0091  131.3749  157.9857 C.3     1  UNL1        0.1637
     15 C         144.7242  132.8173  157.6887 C.3     1  UNL1        0.1272
     16 N         142.9159  137.6621  159.7747 N.am    1  UNL1       -0.3024
     17 C         142.4312  138.6817  158.7870 C.2     1  UNL1        0.2474
     18 O         141.8807  139.9909  159.2695 O.2     1  UNL1       -0.2701
     19 H         143.2772  136.8028  159.4580 H       1  UNL1        0.1497
     20 C         142.6423  138.0135  161.9648 C.3     1  UNL1        0.0896
     21 N         142.7844  138.2415  162.7153 N.3     1  UNL1       -0.2740
     22 C         141.5663  137.8570  163.5017 C.3     1  UNL1        0.0591
     23 C         141.5005  138.1467  164.9720 C.3     1  UNL1        0.0161
     24 C         142.6528  138.8208  165.6558 C.3     1  UNL1        0.0028
     25 C         143.8709  139.2052  164.8694 C.3     1  UNL1        0.0161
     26 C         143.9367  138.9155  163.3992 C.3     1  UNL1        0.0591
     27 C         144.0025  138.6259  161.9289 C.3     1  UNL1        0.0356
     28 C         142.8501  137.9518  161.2450 C.3     1  UNL1        0.0745
     29 C         141.6320  137.5673  162.0314 C.3     1  UNL1        0.0356
@<TRIPOS>BOND
     1    20    21    1
     2    21    22    1
     3    22    23    1
     4    23    24    1
     5    24    25    1
     6    26    25    1
     7    26    27    1
     8    27    28    1
     9    28    16    1
    10    16    17   am
    11    17    18    2
    12    17     1    1
    13     1     2   ar
    14     2     3   ar
    15     3     4   ar
    16     4     5   ar
    17     5     6   ar
    18     6     7   ar
    19     7    10    1
    20    10    11    1
    21    11    12    1
    22    12    13    1
    23    13    14    1
    24    14    15    1
    25     7     8   ar
    26     8     9   ar
    27    28    29    1
    28    26    21    1
    29     9     1   ar
    30    29    22    1
    31     9     5   ar
    32    15    10    1
    33    16    19    1
@<TRIPOS>MOLECULE
*****
 29 33 0 0 0
SMALL
GASTEIGER

@<TRIPOS>ATOM
      1 C         142.5140  139.1274  162.7225 C.ar    1  UNL1        0.0741
      2 C         143.2789  137.9882  162.1167 C.ar    1  UNL1        0.0062
      3 C         143.7352  138.0659  160.6899 C.ar    1  UNL1        0.0034
      4 C         143.4264  139.2828  159.8690 C.ar    1  UNL1        0.0392
      5 C         142.6615  140.4219  160.4748 C.ar    1  UNL1        0.1662
      6 O         142.2129  141.7396  159.9158 O.2     1  UNL1       -0.4237
      7 C         141.4794  142.4763  160.9971 C.ar    1  UNL1        0.2925
      8 N         141.4747  141.6140  162.2244 N.ar    1  UNL1       -0.1945
      9 C         142.2053  140.3443  161.9016 C.ar    1  UNL1        0.1245
     10 N         140.8595  143.8367  160.8729 N.pl3   1  UNL1       -0.2585
     11 C         140.3366  144.5367  162.0920 C.3     1  UNL1        0.1272
     12 C         139.7167  145.8969  161.9678 C.3     1  UNL1        0.1637
     13 O         139.6198  146.5571  160.6243 O.3     1  UNL1       -0.3501
     14 C         140.1427  145.8570  159.4052 C.3     1  UNL1        0.1637
     15 C         140.7626  144.4968  159.5295 C.3     1  UNL1        0.1272
     16 N         142.0228  140.2889  164.9941 N.am    1  UNL1       -0.3024
     17 C         142.0577  139.0498  164.1494 C.2     1  UNL1        0.2474
     18 O         141.6364  137.7332  164.7315 O.2     1  UNL1       -0.2701
     19 H         142.2993  141.1530  164.6120 H       1  UNL1        0.1497
     20 C         141.5237  140.1239  167.1663 C.3     1  UNL1        0.0896
     21 N         141.1102  140.1338  167.8477 N.3     1  UNL1       -0.2740
     22 C         142.0825  139.7589  168.9267 C.3     1  UNL1        0.0591
     23 C         141.6262  139.6814  170.3535 C.3     1  UNL1        0.0161
     24 C         140.1977  139.9786  170.7013 C.3     1  UNL1        0.0028
     25 C         139.2255  140.3534  169.6223 C.3     1  UNL1        0.0161
     26 C         139.6817  140.4310  168.1955 C.3     1  UNL1        0.0591
     27 C         140.1380  140.5086  166.7687 C.3     1  UNL1        0.0356
     28 C         141.5665  140.2113  166.4209 C.3     1  UNL1        0.0745
     29 C         142.5388  139.8365  167.4999 C.3     1  UNL1        0.0356
@<TRIPOS>BOND
     1    20    21    1
     2    21    22    1
     3    22    23    1
     4    23    24    1
     5    24    25    1
     6    26    25    1
     7    26    27    1
     8    27    28    1
     9    28    16    1
    10    16    17   am
    11    17    18    2
    12    17     1    1
    13     1     2   ar
    14     2     3   ar
    15     3     4   ar
    16     4     5   ar
    17     5     6   ar
    18     6     7   ar
    19     7    10    1
    20    10    11    1
    21    11    12    1
    22    12    13    1
    23    13    14    1
    24    14    15    1
    25     7     8   ar
    26     8     9   ar
    27    28    29    1
    28    26    21    1
    29     9     1   ar
    30    29    22    1
    31     9     5   ar
    32    15    10    1
    33    16    19    1
@<TRIPOS>MOLECULE
*****
 29 33 0 0 0
SMALL
GASTEIGER

@<TRIPOS>ATOM
      1 C         141.2294  138.1791  157.2434 C.ar    1  UNL1        0.0741
      2 C         140.2532  138.9807  156.4346 C.ar    1  UNL1        0.0062
      3 C         139.7606  138.4561  155.1185 C.ar    1  UNL1        0.0034
      4 C         140.2442  137.1299  154.6113 C.ar    1  UNL1        0.0392
      5 C         141.2205  136.3283  155.4201 C.ar    1  UNL1        0.1662
      6 O         141.8699  134.9978  155.1791 O.2     1  UNL1       -0.4237
      7 C         142.7639  134.7002  156.3462 C.ar    1  UNL1        0.2925
      8 N         142.6670  135.8466  157.3086 N.ar    1  UNL1       -0.1945
      9 C         141.7131  136.8529  156.7362 C.ar    1  UNL1        0.1245
     10 N         143.6068  133.4716  156.5204 N.pl3   1  UNL1       -0.2585
     11 C         143.6581  132.4373  155.4353 C.3     1  UNL1        0.1272
     12 C         144.5010  131.2088  155.6095 C.3     1  UNL1        0.1637
     13 O         145.2926  131.0147  156.8687 O.3     1  UNL1       -0.3501
     14 C         145.2412  132.0490  157.9538 C.3     1  UNL1        0.1637
     15 C         144.3984  133.2775  157.7797 C.3     1  UNL1        0.1272
     16 N         143.1941  138.7520  158.8441 N.am    1  UNL1       -0.3024
     17 C         141.7221  138.7037  158.5596 C.2     1  UNL1        0.2474
     18 O         140.7428  139.1800  159.5911 O.2     1  UNL1       -0.2701
     19 H         143.8368  138.4394  158.1670 H       1  UNL1        0.1497
     20 C         143.9048  139.3553  160.8752 C.3     1  UNL1        0.0896
     21 N         144.1795  139.8011  161.4763 N.3     1  UNL1       -0.2740
     22 C         144.2870  138.8823  162.6570 C.3     1  UNL1        0.0591
     23 C         144.7797  139.4069  163.9731 C.3     1  UNL1        0.0161
     24 C         145.1649  140.8502  164.1084 C.3     1  UNL1        0.0028
     25 C         145.0573  141.7690  162.9276 C.3     1  UNL1        0.0161
     26 C         144.5646  141.2445  161.6115 C.3     1  UNL1        0.0591
     27 C         144.0720  140.7199  160.2955 C.3     1  UNL1        0.0356
     28 C         143.6868  139.2765  160.1601 C.3     1  UNL1        0.0745
     29 C         143.7943  138.3577  161.3409 C.3     1  UNL1        0.0356
@<TRIPOS>BOND
     1    20    21    1
     2    21    22    1
     3    22    23    1
     4    23    24    1
     5    24    25    1
     6    26    25    1
     7    26    27    1
     8    27    28    1
     9    28    16    1
    10    16    17   am
    11    17    18    2
    12    17     1    1
    13     1     2   ar
    14     2     3   ar
    15     3     4   ar
    16     4     5   ar
    17     5     6   ar
    18     6     7   ar
    19     7    10    1
    20    10    11    1
    21    11    12    1
    22    12    13    1
    23    13    14    1
    24    14    15    1
    25     7     8   ar
    26     8     9   ar
    27    28    29    1
    28    26    21    1
    29     9     1   ar
    30    29    22    1
    31     9     5   ar
    32    15    10    1
    33    16    19    1
@<TRIPOS>MOLECULE
*****
 29 33 0 0 0
SMALL
GASTEIGER

@<TRIPOS>ATOM
      1 C         142.9157  138.6267  156.7692 C.ar    1  UNL1        0.0741
      2 C         143.0690  139.7464  155.7829 C.ar    1  UNL1        0.0062
      3 C         142.5856  141.1232  156.1302 C.ar    1  UNL1        0.0034
      4 C         141.9487  141.3803  157.4638 C.ar    1  UNL1        0.0392
      5 C         141.7954  140.2606  158.4500 C.ar    1  UNL1        0.1662
      6 O         141.2121  140.2124  159.8311 O.2     1  UNL1       -0.4237
      7 C         141.3351  138.8058  160.3374 C.ar    1  UNL1        0.2925
      8 N         141.9944  137.9847  159.2693 N.ar    1  UNL1       -0.1945
      9 C         142.2788  138.8838  158.1028 C.ar    1  UNL1        0.1245
     10 N         140.8788  138.3078  161.6768 N.pl3   1  UNL1       -0.2585
     11 C         141.8881  137.9057  162.7111 C.3     1  UNL1        0.1272
     12 C         141.4318  137.4077  164.0504 C.3     1  UNL1        0.1637
     13 O         139.9663  137.3119  164.3555 O.3     1  UNL1       -0.3501
     14 C         138.9571  137.7140  163.3213 C.3     1  UNL1        0.1637
     15 C         139.4133  138.2120  161.9819 C.3     1  UNL1        0.1272
     16 N         142.5972  136.0489  156.8276 N.am    1  UNL1       -0.3024
     17 C         143.3991  137.2498  156.4220 C.2     1  UNL1        0.2474
     18 O         144.6845  137.0740  155.6691 O.2     1  UNL1       -0.2701
     19 H         141.7536  136.1643  157.3218 H       1  UNL1        0.1497
     20 C         143.2273  134.0177  156.1408 C.3     1  UNL1        0.0896
     21 N         143.5640  133.2951  156.1332 N.3     1  UNL1       -0.2740
     22 C         143.2169  132.6911  154.8048 C.3     1  UNL1        0.0591
     23 C         143.7003  131.3143  154.4576 C.3     1  UNL1        0.0161
     24 C         144.5309  130.5415  155.4388 C.3     1  UNL1        0.0028
     25 C         144.8780  131.1455  156.7672 C.3     1  UNL1        0.0161
     26 C         144.3946  132.5223  157.1144 C.3     1  UNL1        0.0591
     27 C         143.9112  133.8991  157.4616 C.3     1  UNL1        0.0356
     28 C         143.0806  134.6720  156.4804 C.3     1  UNL1        0.0745
     29 C         142.7334  134.0680  155.1520 C.3     1  UNL1        0.0356
@<TRIPOS>BOND
     1    20    21    1
     2    21    22    1
     3    22    23    1
     4    23    24    1
     5    24    25    1
     6    26    25    1
     7    26    27    1
     8    27    28    1
     9    28    16    1
    10    16    17   am
    11    17    18    2
    12    17     1    1
    13     1     2   ar
    14     2     3   ar
    15     3     4   ar
    16     4     5   ar
    17     5     6   ar
    18     6     7   ar
    19     7    10    1
    20    10    11    1
    21    11    12    1
    22    12    13    1
    23    13    14    1
    24    14    15    1
    25     7     8   ar
    26     8     9   ar
    27    28    29    1
    28    26    21    1
    29     9     1   ar
    30    29    22    1
    31     9     5   ar
    32    15    10    1
    33    16    19    1
@<TRIPOS>MOLECULE
*****
 29 33 0 0 0
SMALL
GASTEIGER

@<TRIPOS>ATOM
      1 C         143.0708  140.3921  159.6934 C.ar    1  UNL1        0.0741
      2 C         143.7272  141.7214  159.4655 C.ar    1  UNL1        0.0062
      3 C         144.4352  141.9963  158.1720 C.ar    1  UNL1        0.0034
      4 C         144.4868  140.9419  157.1064 C.ar    1  UNL1        0.0392
      5 C         143.8304  139.6125  157.3343 C.ar    1  UNL1        0.1662
      6 O         143.7170  138.3886  156.4746 O.2     1  UNL1       -0.4237
      7 C         142.9390  137.3572  157.2368 C.ar    1  UNL1        0.2925
      8 N         142.5715  137.9437  158.5675 N.ar    1  UNL1       -0.1945
      9 C         143.1224  139.3376  158.6278 C.ar    1  UNL1        0.1245
     10 N         142.5899  135.9808  156.7531 N.pl3   1  UNL1       -0.2585
     11 C         143.3018  134.7857  157.3141 C.3     1  UNL1        0.1272
     12 C         142.9526  133.4094  156.8304 C.3     1  UNL1        0.1637
     13 O         141.8915  133.2284  155.7857 O.3     1  UNL1       -0.3501
     14 C         141.1795  134.4235  155.2248 C.3     1  UNL1        0.1637
     15 C         141.5287  135.7998  155.7085 C.3     1  UNL1        0.1272
     16 N         140.9613  139.5827  160.9759 N.am    1  UNL1       -0.3024
     17 C         142.3628  140.1171  160.9869 C.2     1  UNL1        0.2474
     18 O         143.0563  140.3765  162.2914 O.2     1  UNL1       -0.2701
     19 H         140.5061  139.4124  160.1197 H       1  UNL1        0.1497
     20 C         139.9586  138.9883  162.8827 C.3     1  UNL1        0.0896
     21 N         139.5452  139.0327  163.5629 N.3     1  UNL1       -0.2740
     22 C         139.5166  137.6408  164.1210 C.3     1  UNL1        0.0591
     23 C         138.8086  137.3658  165.4145 C.3     1  UNL1        0.0161
     24 C         138.1292  138.4828  166.1498 C.3     1  UNL1        0.0028
     25 C         138.1579  139.8748  165.5916 C.3     1  UNL1        0.0161
     26 C         138.8659  140.1498  164.2982 C.3     1  UNL1        0.0591
     27 C         139.5739  140.4247  163.0047 C.3     1  UNL1        0.0356
     28 C         140.2533  139.3077  162.2693 C.3     1  UNL1        0.0745
     29 C         140.2246  137.9157  162.8275 C.3     1  UNL1        0.0356
@<TRIPOS>BOND
     1    20    21    1
     2    21    22    1
     3    22    23    1
     4    23    24    1
     5    24    25    1
     6    26    25    1
     7    26    27    1
     8    27    28    1
     9    28    16    1
    10    16    17   am
    11    17    18    2
    12    17     1    1
    13     1     2   ar
    14     2     3   ar
    15     3     4   ar
    16     4     5   ar
    17     5     6   ar
    18     6     7   ar
    19     7    10    1
    20    10    11    1
    21    11    12    1
    22    12    13    1
    23    13    14    1
    24    14    15    1
    25     7     8   ar
    26     8     9   ar
    27    28    29    1
    28    26    21    1
    29     9     1   ar
    30    29    22    1
    31     9     5   ar
    32    15    10    1
    33    16    19    1
@<TRIPOS>MOLECULE
*****
 29 33 0 0 0
SMALL
GASTEIGER

@<TRIPOS>ATOM
      1 C         140.3188  144.0542  163.4585 C.ar    1  UNL1        0.0741
      2 C         139.8748  145.4358  163.0791 C.ar    1  UNL1        0.0062
      3 C         139.9712  145.8892  161.6526 C.ar    1  UNL1        0.0034
      4 C         140.5116  144.9610  160.6054 C.ar    1  UNL1        0.0392
      5 C         140.9557  143.5795  160.9849 C.ar    1  UNL1        0.1662
      6 O         141.5260  142.4513  160.1775 O.2     1  UNL1       -0.4237
      7 C         141.7821  141.3006  161.1050 C.ar    1  UNL1        0.2925
      8 N         141.3701  141.7176  162.4857 N.ar    1  UNL1       -0.1945
      9 C         140.8593  143.1260  162.4114 C.ar    1  UNL1        0.1245
     10 N         142.3506  139.9670  160.7195 N.pl3   1  UNL1       -0.2585
     11 C         143.2419  139.2277  161.6729 C.3     1  UNL1        0.1272
     12 C         143.8103  137.8942  161.2873 C.3     1  UNL1        0.1637
     13 O         143.4873  137.3000  159.9485 O.3     1  UNL1       -0.3501
     14 C         142.5959  138.0393  158.9951 C.3     1  UNL1        0.1637
     15 C         142.0275  139.3728  159.3807 C.3     1  UNL1        0.1272
     16 N         141.0935  142.4831  165.3773 N.am    1  UNL1       -0.3024
     17 C         140.2224  143.6007  164.8851 C.2     1  UNL1        0.2474
     18 O         139.2550  144.2648  165.8195 O.2     1  UNL1       -0.2701
     19 H         141.7285  142.0473  164.7641 H       1  UNL1        0.1497
     20 C         140.7952  141.7044  167.4508 C.3     1  UNL1        0.0896
     21 N         140.9008  141.5761  168.2305 N.3     1  UNL1       -0.2740
     22 C         139.8068  140.6382  168.6470 C.3     1  UNL1        0.0591
     23 C         139.7105  140.1847  170.0736 C.3     1  UNL1        0.0161
     24 C         140.7081  140.6691  171.0835 C.3     1  UNL1        0.0028
     25 C         141.8021  141.6071  170.6669 C.3     1  UNL1        0.0161
     26 C         141.8984  142.0606  169.2404 C.3     1  UNL1        0.0591
     27 C         141.9948  142.5141  167.8139 C.3     1  UNL1        0.0356
     28 C         140.9971  142.0296  166.8038 C.3     1  UNL1        0.0745
     29 C         139.9032  141.0917  167.2204 C.3     1  UNL1        0.0356
@<TRIPOS>BOND
     1    20    21    1
     2    21    22    1
     3    22    23    1
     4    23    24    1
     5    24    25    1
     6    26    25    1
     7    26    27    1
     8    27    28    1
     9    28    16    1
    10    16    17   am
    11    17    18    2
    12    17     1    1
    13     1     2   ar
    14     2     3   ar
    15     3     4   ar
    16     4     5   ar
    17     5     6   ar
    18     6     7   ar
    19     7    10    1
    20    10    11    1
    21    11    12    1
    22    12    13    1
    23    13    14    1
    24    14    15    1
    25     7     8   ar
    26     8     9   ar
    27    28    29    1
    28    26    21    1
    29     9     1   ar
    30    29    22    1
    31     9     5   ar
    32    15    10    1
    33    16    19    1
@<TRIPOS>MOLECULE
*****
 29 33 0 0 0
SMALL
GASTEIGER

@<TRIPOS>ATOM
      1 C         139.2234  139.5028  157.5091 C.ar    1  UNL1        0.0741
      2 C         138.4239  140.5697  156.8217 C.ar    1  UNL1        0.0062
      3 C         138.3176  140.5804  155.3255 C.ar    1  UNL1        0.0034
      4 C         139.0107  139.5242  154.5168 C.ar    1  UNL1        0.0392
      5 C         139.8103  138.4574  155.2042 C.ar    1  UNL1        0.1662
      6 O         140.5970  137.2950  154.6752 O.2     1  UNL1       -0.4237
      7 C         141.1897  136.5659  155.8445 C.ar    1  UNL1        0.2925
      8 N         140.7691  137.2776  157.0961 N.ar    1  UNL1       -0.1945
      9 C         139.9166  138.4467  156.7003 C.ar    1  UNL1        0.1245
     10 N         142.0515  135.3401  155.7744 N.pl3   1  UNL1       -0.2585
     11 C         141.9546  134.4217  154.5925 C.3     1  UNL1        0.1272
     12 C         142.8164  133.1960  154.5224 C.3     1  UNL1        0.1637
     13 O         143.7751  132.8888  155.6344 O.3     1  UNL1       -0.3501
     14 C         143.8721  133.8072  156.8163 C.3     1  UNL1        0.1637
     15 C         143.0103  135.0328  156.8864 C.3     1  UNL1        0.1272
     16 N         138.1199  139.1961  159.8411 N.am    1  UNL1       -0.3024
     17 C         139.3298  139.4921  159.0053 C.2     1  UNL1        0.2474
     18 O         140.6460  139.7773  159.6657 O.2     1  UNL1       -0.2701
     19 H         137.2560  139.0089  159.4077 H       1  UNL1        0.1497
     20 C         138.3381  138.9970  162.0564 C.3     1  UNL1        0.0896
     21 N         138.3326  139.1746  162.8335 N.3     1  UNL1       -0.2740
     22 C         138.7923  137.9360  163.5438 C.3     1  UNL1        0.0591
     23 C         138.8986  137.9253  165.0400 C.3     1  UNL1        0.0161
     24 C         138.5452  139.1531  165.8258 C.3     1  UNL1        0.0028
     25 C         138.0855  140.3917  165.1155 C.3     1  UNL1        0.0161
     26 C         137.9792  140.4024  163.6193 C.3     1  UNL1        0.0591
     27 C         137.8728  140.4132  162.1232 C.3     1  UNL1        0.0356
     28 C         138.2263  139.1853  161.3373 C.3     1  UNL1        0.0745
     29 C         138.6860  137.9468  162.0476 C.3     1  UNL1        0.0356
@<TRIPOS>BOND
     1    20    21    1
     2    21    22    1
     3    22    23    1
     4    23    24    1
     5    24    25    1
     6    26    25    1
     7    26    27    1
     8    27    28    1
     9    28    16    1
    10    16    17   am
    11    17    18    2
    12    17     1    1
    13     1     2   ar
    14     2     3   ar
    15     3     4   ar
    16     4     5   ar
    17     5     6   ar
    18     6     7   ar
    19     7    10    1
    20    10    11    1
    21    11    12    1
    22    12    13    1
    23    13    14    1
    24    14    15    1
    25     7     8   ar
    26     8     9   ar
    27    28    29    1
    28    26    21    1
    29     9     1   ar
    30    29    22    1
    31     9     5   ar
    32    15    10    1
    33    16    19    1
