@<TRIPOS>MOLECULE
*****
 35 39 0 0 0
SMALL
GASTEIGER

@<TRIPOS>ATOM
      1 C         142.7174  138.2161  159.1187 C.ar    1  UNL1        0.0363
      2 C         142.3953  137.8963  160.5483 C.ar    1  UNL1        0.0179
      3 C         142.8678  139.0395  161.3968 C.ar    1  UNL1        0.0657
      4 N         143.4818  140.0659  160.4914 N.ar    1  UNL1       -0.2630
      5 C         143.3889  139.5570  159.0835 C.ar    1  UNL1        0.0854
      6 C         143.9543  141.2091  161.3399 C.2     1  UNL1        0.3236
      7 O         144.6301  142.4536  160.8454 O.2     1  UNL1       -0.2489
      8 N         143.6323  140.8893  162.7696 N.am    1  UNL1       -0.2514
      9 C         142.9608  139.5484  162.8047 C.3     1  UNL1        0.1398
     10 C         140.1777  138.6088  157.5707 C.3     1  UNL1        0.0342
     11 C         141.1503  137.5439  157.1584 C.ar    1  UNL1        0.0151
     12 C         140.8531  136.6753  155.9721 C.ar    1  UNL1        0.0990
     13 N         141.8257  135.6104  155.5598 N.ar    1  UNL1       -0.2123
     14 C         143.0955  135.4140  156.3337 C.ar    1  UNL1        0.2217
     15 N         143.3927  136.2827  157.5200 N.ar    1  UNL1       -0.2138
     16 C         142.4201  137.3476  157.9324 C.ar    1  UNL1        0.0832
     17 N         144.0681  134.3492  155.9215 N.pl3   1  UNL1       -0.2681
     18 H         144.7313  134.5340  155.2177 H       1  UNL1        0.1565
     19 C         144.0304  133.0027  156.5815 C.ar    1  UNL1        0.1328
     20 C         145.0335  132.4736  157.5633 C.ar    1  UNL1        0.0565
     21 C         144.6061  131.0929  157.9641 C.ar    1  UNL1        0.1230
     22 N         143.3388  130.7685  157.2301 N.ar    1  UNL1       -0.1665
     23 N         142.9830  131.9489  156.3755 N.ar    1  UNL1       -0.2355
     24 C         141.7894  132.0566  155.4735 C.3     1  UNL1        0.1552
     25 C         143.9295  141.7578  163.9558 C.3     1  UNL1        0.1292
     26 C         142.8370  142.1062  164.9230 C.ar    1  UNL1       -0.0009
     27 C         142.9155  141.6348  166.3447 C.ar    1  UNL1       -0.0025
     28 C         141.8231  141.9831  167.3119 C.ar    1  UNL1        0.0006
     29 C         140.6522  142.8029  166.8571 C.ar    1  UNL1        0.0114
     30 C         140.5737  143.2744  165.4352 C.ar    1  UNL1        0.0574
     31 CL        139.4028  144.0942  164.9804 Cl      1  UNL1       -0.0823
     32 C         141.6661  142.9260  164.4682 C.ar    1  UNL1        0.0088
     33 C         145.3192  142.2781  164.1750 C.3     1  UNL1        0.1614
     34 O         146.4412  141.8150  163.2937 O.3     1  UNL1       -0.3799
     35 H         146.5974  140.8688  163.4394 H       1  UNL1        0.2105
@<TRIPOS>BOND
     1    10    11    1
     2    11    12   ar
     3    12    13   ar
     4    13    14   ar
     5    14    17    1
     6    17    19    1
     7    19    20   ar
     8    20    21   ar
     9    21    22   ar
    10    22    23   ar
    11    23    24    1
    12    14    15   ar
    13    15    16   ar
    14    16     1    1
    15     1     2   ar
    16     2     3   ar
    17     3     4   ar
    18     4     5   ar
    19     4     6   am
    20     6     7    2
    21     6     8   am
    22     8    25    1
    23    25    33    1
    24    33    34    1
    25    25    26    1
    26    26    27   ar
    27    27    28   ar
    28    28    29   ar
    29    29    30   ar
    30    30    31    1
    31    30    32   ar
    32     8     9    1
    33    16    11   ar
    34     5     1   ar
    35    32    26   ar
    36    23    19   ar
    37     9     3    1
    38    17    18    1
    39    34    35    1
@<TRIPOS>MOLECULE
*****
 35 39 0 0 0
SMALL
GASTEIGER

@<TRIPOS>ATOM
      1 C         138.1065  140.7893  160.8109 C.ar    1  UNL1        0.0363
      2 C         137.7685  141.7118  161.9444 C.ar    1  UNL1        0.0179
      3 C         138.0063  140.9743  163.2287 C.ar    1  UNL1        0.0657
      4 N         138.4912  139.5961  162.8890 N.ar    1  UNL1       -0.2630
      5 C         138.5531  139.4817  161.3947 C.ar    1  UNL1        0.0854
      6 C         138.7289  138.8586  164.1734 C.2     1  UNL1        0.3236
      7 O         139.2187  137.4466  164.3017 O.2     1  UNL1       -0.2489
      8 N         138.3910  139.7811  165.3070 N.am    1  UNL1       -0.2514
      9 C         137.9444  141.0887  164.7231 C.3     1  UNL1        0.1398
     10 C         139.8647  142.9176  159.6365 C.3     1  UNL1        0.0342
     11 C         138.8931  142.1810  158.7628 C.ar    1  UNL1        0.0151
     12 C         138.8006  142.5085  157.3019 C.ar    1  UNL1        0.0990
     13 N         137.8290  141.7719  156.4282 N.ar    1  UNL1       -0.2123
     14 C         136.9499  140.7078  157.0153 C.ar    1  UNL1        0.2217
     15 N         137.0424  140.3803  158.4762 N.ar    1  UNL1       -0.2138
     16 C         138.0140  141.1169  159.3500 C.ar    1  UNL1        0.0832
     17 N         135.9783  139.9711  156.1416 N.pl3   1  UNL1       -0.2681
     18 H         136.2872  139.2177  155.5883 H       1  UNL1        0.1565
     19 C         134.5361  140.3824  156.1110 C.ar    1  UNL1        0.1328
     20 C         133.9009  141.2954  155.1045 C.ar    1  UNL1        0.0565
     21 C         132.4481  141.4302  155.4529 C.ar    1  UNL1        0.1230
     22 N         132.1855  140.6005  156.6746 N.ar    1  UNL1       -0.1665
     23 N         133.4760  139.9529  157.0813 N.ar    1  UNL1       -0.2355
     24 C         133.6719  139.0367  158.2527 C.3     1  UNL1        0.1552
     25 C         138.4835  139.4535  166.7678 C.3     1  UNL1        0.1292
     26 C         139.5145  140.1276  167.6238 C.ar    1  UNL1       -0.0009
     27 C         139.3125  140.2220  169.1071 C.ar    1  UNL1       -0.0025
     28 C         140.3436  140.8960  169.9631 C.ar    1  UNL1        0.0006
     29 C         141.5767  141.4755  169.3357 C.ar    1  UNL1        0.0114
     30 C         141.7787  141.3810  167.8524 C.ar    1  UNL1        0.0574
     31 CL        143.0118  141.9606  167.2250 Cl      1  UNL1       -0.0823
     32 C         140.7476  140.7071  166.9964 C.ar    1  UNL1        0.0088
     33 C         137.5449  138.4520  167.3727 C.3     1  UNL1        0.1614
     34 O         137.2665  137.1605  166.6623 O.3     1  UNL1       -0.3799
     35 H         136.7973  137.3423  165.8330 H       1  UNL1        0.2105
@<TRIPOS>BOND
     1    10    11    1
     2    11    12   ar
     3    12    13   ar
     4    13    14   ar
     5    14    17    1
     6    17    19    1
     7    19    20   ar
     8    20    21   ar
     9    21    22   ar
    10    22    23   ar
    11    23    24    1
    12    14    15   ar
    13    15    16   ar
    14    16     1    1
    15     1     2   ar
    16     2     3   ar
    17     3     4   ar
    18     4     5   ar
    19     4     6   am
    20     6     7    2
    21     6     8   am
    22     8    25    1
    23    25    33    1
    24    33    34    1
    25    25    26    1
    26    26    27   ar
    27    27    28   ar
    28    28    29   ar
    29    29    30   ar
    30    30    31    1
    31    30    32   ar
    32     8     9    1
    33    16    11   ar
    34     5     1   ar
    35    32    26   ar
    36    23    19   ar
    37     9     3    1
    38    17    18    1
    39    34    35    1
@<TRIPOS>MOLECULE
*****
 35 39 0 0 0
SMALL
GASTEIGER

@<TRIPOS>ATOM
      1 C         141.6596  138.6948  158.6346 C.ar    1  UNL1        0.0363
      2 C         142.2554  139.4953  159.7545 C.ar    1  UNL1        0.0179
      3 C         141.1394  139.9335  160.6558 C.ar    1  UNL1        0.0657
      4 N         139.8538  139.4038  160.0930 N.ar    1  UNL1       -0.2630
      5 C         140.1753  138.6382  158.8438 C.ar    1  UNL1        0.0854
      6 C         138.7377  139.8421  160.9943 C.2     1  UNL1        0.3236
      7 O         137.2815  139.5339  160.8084 O.2     1  UNL1       -0.2489
      8 N         139.3335  140.6426  162.1143 N.am    1  UNL1       -0.2514
      9 C         140.8178  140.6991  161.9050 C.3     1  UNL1        0.1398
     10 C         142.3259  140.3015  156.1903 C.3     1  UNL1        0.0342
     11 C         142.7484  138.8652  156.2819 C.ar    1  UNL1        0.0151
     12 C         143.5042  138.2322  155.1513 C.ar    1  UNL1        0.0990
     13 N         143.9268  136.7959  155.2428 N.ar    1  UNL1       -0.2123
     14 C         143.5937  135.9925  156.4649 C.ar    1  UNL1        0.2217
     15 N         142.8379  136.6255  157.5955 N.ar    1  UNL1       -0.2138
     16 C         142.4153  138.0618  157.5040 C.ar    1  UNL1        0.0832
     17 N         144.0163  134.5562  156.5565 N.pl3   1  UNL1       -0.2681
     18 H         144.9116  134.3272  156.8959 H       1  UNL1        0.1565
     19 C         143.0748  133.4688  156.1309 C.ar    1  UNL1        0.1328
     20 C         141.7853  133.6595  155.3888 C.ar    1  UNL1        0.0565
     21 C         141.1711  132.3083  155.1719 C.ar    1  UNL1        0.1230
     22 N         142.0810  131.2825  155.7801 N.ar    1  UNL1       -0.1665
     23 N         143.2576  131.9998  156.3728 N.ar    1  UNL1       -0.2355
     24 C         144.4139  131.3603  157.0826 C.3     1  UNL1        0.1552
     25 C         138.5778  141.2755  163.2448 C.3     1  UNL1        0.1292
     26 C         138.7653  140.7739  164.6460 C.ar    1  UNL1       -0.0009
     27 C         139.6643  141.5120  165.5929 C.ar    1  UNL1       -0.0025
     28 C         139.8517  141.0104  166.9942 C.ar    1  UNL1        0.0006
     29 C         139.1400  139.7706  167.4483 C.ar    1  UNL1        0.0114
     30 C         138.2409  139.0324  166.5014 C.ar    1  UNL1        0.0574
     31 CL        137.5292  137.7926  166.9555 Cl      1  UNL1       -0.0823
     32 C         138.0536  139.5340  165.1002 C.ar    1  UNL1        0.0088
     33 C         137.6346  142.4100  162.9743 C.3     1  UNL1        0.1614
     34 O         137.6075  143.0565  161.6210 O.3     1  UNL1       -0.3799
     35 H         138.4520  143.5058  161.4603 H       1  UNL1        0.2105
@<TRIPOS>BOND
     1    10    11    1
     2    11    12   ar
     3    12    13   ar
     4    13    14   ar
     5    14    17    1
     6    17    19    1
     7    19    20   ar
     8    20    21   ar
     9    21    22   ar
    10    22    23   ar
    11    23    24    1
    12    14    15   ar
    13    15    16   ar
    14    16     1    1
    15     1     2   ar
    16     2     3   ar
    17     3     4   ar
    18     4     5   ar
    19     4     6   am
    20     6     7    2
    21     6     8   am
    22     8    25    1
    23    25    33    1
    24    33    34    1
    25    25    26    1
    26    26    27   ar
    27    27    28   ar
    28    28    29   ar
    29    29    30   ar
    30    30    31    1
    31    30    32   ar
    32     8     9    1
    33    16    11   ar
    34     5     1   ar
    35    32    26   ar
    36    23    19   ar
    37     9     3    1
    38    17    18    1
    39    34    35    1
@<TRIPOS>MOLECULE
*****
 35 39 0 0 0
SMALL
GASTEIGER

@<TRIPOS>ATOM
      1 C         142.7468  138.4518  160.1187 C.ar    1  UNL1        0.0363
      2 C         141.7565  137.8916  161.0962 C.ar    1  UNL1        0.0179
      3 C         142.2570  138.1810  162.4803 C.ar    1  UNL1        0.0657
      4 N         143.5565  138.9201  162.3583 N.ar    1  UNL1       -0.2630
      5 C         143.8593  139.0875  160.8987 C.ar    1  UNL1        0.0854
      6 C         144.0569  139.2095  163.7424 C.2     1  UNL1        0.3236
      7 O         145.3250  139.9323  164.0883 O.2     1  UNL1       -0.2489
      8 N         143.0666  138.6493  164.7200 N.am    1  UNL1       -0.2514
      9 C         141.9542  138.0136  163.9399 C.3     1  UNL1        0.1398
     10 C         141.4750  140.7084  158.6052 C.3     1  UNL1        0.0342
     11 C         142.0070  139.5160  157.8670 C.ar    1  UNL1        0.0151
     12 C         141.9032  139.4517  156.3719 C.ar    1  UNL1        0.0990
     13 N         142.4352  138.2593  155.6336 N.ar    1  UNL1       -0.2123
     14 C         143.0711  137.1310  156.3904 C.ar    1  UNL1        0.2217
     15 N         143.1749  137.1953  157.8854 N.ar    1  UNL1       -0.2138
     16 C         142.6429  138.3877  158.6237 C.ar    1  UNL1        0.0832
     17 N         143.6031  135.9386  155.6521 N.pl3   1  UNL1       -0.2681
     18 H         144.4269  136.0171  155.1188 H       1  UNL1        0.1565
     19 C         142.8800  134.6265  155.7264 C.ar    1  UNL1        0.1328
     20 C         141.7830  134.1712  154.8101 C.ar    1  UNL1        0.0565
     21 C         141.3520  132.8027  155.2474 C.ar    1  UNL1        0.1230
     22 N         142.1824  132.4122  156.4339 N.ar    1  UNL1       -0.1665
     23 N         143.1268  133.5394  156.7300 N.ar    1  UNL1       -0.2355
     24 C         144.1401  133.5734  157.8354 C.3     1  UNL1        0.1552
     25 C         143.1705  138.7134  166.2149 C.3     1  UNL1        0.1292
     26 C         142.5485  139.8560  166.9617 C.ar    1  UNL1       -0.0009
     27 C         142.6840  139.9396  168.4531 C.ar    1  UNL1       -0.0025
     28 C         142.0619  141.0822  169.1999 C.ar    1  UNL1        0.0006
     29 C         141.3045  142.1412  168.4551 C.ar    1  UNL1        0.0114
     30 C         141.1690  142.0576  166.9635 C.ar    1  UNL1        0.0574
     31 CL        140.4116  143.1166  166.2187 Cl      1  UNL1       -0.0823
     32 C         141.7911  140.9150  166.2168 C.ar    1  UNL1        0.0088
     33 C         143.8965  137.6350  166.9632 C.3     1  UNL1        0.1614
     34 O         145.3733  137.4538  166.7730 O.3     1  UNL1       -0.3799
     35 H         145.5493  137.1667  165.8634 H       1  UNL1        0.2105
@<TRIPOS>BOND
     1    10    11    1
     2    11    12   ar
     3    12    13   ar
     4    13    14   ar
     5    14    17    1
     6    17    19    1
     7    19    20   ar
     8    20    21   ar
     9    21    22   ar
    10    22    23   ar
    11    23    24    1
    12    14    15   ar
    13    15    16   ar
    14    16     1    1
    15     1     2   ar
    16     2     3   ar
    17     3     4   ar
    18     4     5   ar
    19     4     6   am
    20     6     7    2
    21     6     8   am
    22     8    25    1
    23    25    33    1
    24    33    34    1
    25    25    26    1
    26    26    27   ar
    27    27    28   ar
    28    28    29   ar
    29    29    30   ar
    30    30    31    1
    31    30    32   ar
    32     8     9    1
    33    16    11   ar
    34     5     1   ar
    35    32    26   ar
    36    23    19   ar
    37     9     3    1
    38    17    18    1
    39    34    35    1
@<TRIPOS>MOLECULE
*****
 35 39 0 0 0
SMALL
GASTEIGER

@<TRIPOS>ATOM
      1 C         140.9061  139.2717  161.9235 C.ar    1  UNL1        0.0363
      2 C         142.1885  138.5166  161.7354 C.ar    1  UNL1        0.0179
      3 C         142.2614  138.0765  160.3032 C.ar    1  UNL1        0.0657
      4 N         141.0241  138.5597  159.6062 N.ar    1  UNL1       -0.2630
      5 C         140.1865  139.2983  160.6076 C.ar    1  UNL1        0.0854
      6 C         141.0970  138.1196  158.1741 C.2     1  UNL1        0.3236
      7 O         140.0682  138.3876  157.1159 O.2     1  UNL1       -0.2489
      8 N         142.3794  137.3644  157.9859 N.am    1  UNL1       -0.2514
      9 C         143.0990  137.3379  159.3018 C.3     1  UNL1        0.1398
     10 C         139.6477  137.5591  164.0410 C.3     1  UNL1        0.0342
     11 C         139.7982  139.0351  164.2616 C.ar    1  UNL1        0.0151
     12 C         139.3195  139.6549  165.5409 C.ar    1  UNL1        0.0990
     13 N         139.4700  141.1310  165.7616 N.ar    1  UNL1       -0.2123
     14 C         140.0992  141.9873  164.7029 C.ar    1  UNL1        0.2217
     15 N         140.5779  141.3674  163.4235 N.ar    1  UNL1       -0.2138
     16 C         140.4274  139.8914  163.2029 C.ar    1  UNL1        0.0832
     17 N         140.2497  143.4633  164.9235 N.pl3   1  UNL1       -0.2681
     18 H         140.4861  143.8060  165.8156 H       1  UNL1        0.1565
     19 C         140.0401  144.4170  163.7849 C.ar    1  UNL1        0.1328
     20 C         141.0852  145.3010  163.1714 C.ar    1  UNL1        0.0565
     21 C         140.4396  146.0846  162.0673 C.ar    1  UNL1        0.1230
     22 N         138.9955  145.6849  161.9984 N.ar    1  UNL1       -0.1665
     23 N         138.7486  144.6543  163.0599 N.ar    1  UNL1       -0.2355
     24 C         137.4399  143.9794  163.3462 C.3     1  UNL1        0.1552
     25 C         142.8580  136.7448  156.7066 C.3     1  UNL1        0.1292
     26 C         142.6772  135.2743  156.4718 C.ar    1  UNL1       -0.0009
     27 C         141.5839  134.7881  155.5673 C.ar    1  UNL1       -0.0025
     28 C         141.4030  133.3176  155.3325 C.ar    1  UNL1        0.0006
     29 C         142.3155  132.3334  156.0022 C.ar    1  UNL1        0.0114
     30 C         143.4089  132.8197  156.9068 C.ar    1  UNL1        0.0574
     31 CL        144.3214  131.8355  157.5765 Cl      1  UNL1       -0.0823
     32 C         143.5897  134.2901  157.1415 C.ar    1  UNL1        0.0088
     33 C         143.5176  137.5955  155.6620 C.3     1  UNL1        0.1614
     34 O         144.9678  137.3934  155.3360 O.3     1  UNL1       -0.3799
     35 H         145.5084  137.6325  156.1050 H       1  UNL1        0.2105
@<TRIPOS>BOND
     1    10    11    1
     2    11    12   ar
     3    12    13   ar
     4    13    14   ar
     5    14    17    1
     6    17    19    1
     7    19    20   ar
     8    20    21   ar
     9    21    22   ar
    10    22    23   ar
    11    23    24    1
    12    14    15   ar
    13    15    16   ar
    14    16     1    1
    15     1     2   ar
    16     2     3   ar
    17     3     4   ar
    18     4     5   ar
    19     4     6   am
    20     6     7    2
    21     6     8   am
    22     8    25    1
    23    25    33    1
    24    33    34    1
    25    25    26    1
    26    26    27   ar
    27    27    28   ar
    28    28    29   ar
    29    29    30   ar
    30    30    31    1
    31    30    32   ar
    32     8     9    1
    33    16    11   ar
    34     5     1   ar
    35    32    26   ar
    36    23    19   ar
    37     9     3    1
    38    17    18    1
    39    34    35    1
@<TRIPOS>MOLECULE
*****
 35 39 0 0 0
SMALL
GASTEIGER

@<TRIPOS>ATOM
      1 C         140.3116  144.7770  157.9974 C.ar    1  UNL1        0.0363
      2 C         140.7037  145.3985  159.3051 C.ar    1  UNL1        0.0179
      3 C         140.1631  144.5374  160.4080 C.ar    1  UNL1        0.0657
      4 N         139.4369  143.3839  159.7819 N.ar    1  UNL1       -0.2630
      5 C         139.5287  143.5320  158.2921 C.ar    1  UNL1        0.0854
      6 C         138.8962  142.5229  160.8848 C.2     1  UNL1        0.3236
      7 O         138.1028  141.2619  160.7106 O.2     1  UNL1       -0.2489
      8 N         139.2883  143.1443  162.1926 N.am    1  UNL1       -0.2514
      9 C         140.0712  144.3894  161.8978 C.3     1  UNL1        0.1398
     10 C         142.5960  143.6031  156.4470 C.3     1  UNL1        0.0342
     11 C         141.7863  144.7205  155.8592 C.ar    1  UNL1        0.0151
     12 C         142.1187  145.2511  154.4960 C.ar    1  UNL1        0.0990
     13 N         141.3091  146.3685  153.9081 N.ar    1  UNL1       -0.2123
     14 C         140.1669  146.9555  154.6832 C.ar    1  UNL1        0.2217
     15 N         139.8344  146.4249  156.0464 N.ar    1  UNL1       -0.2138
     16 C         140.6441  145.3075  156.6343 C.ar    1  UNL1        0.0832
     17 N         139.3572  148.0729  154.0954 N.pl3   1  UNL1       -0.2681
     18 H         138.7960  147.9102  153.3030 H       1  UNL1        0.1565
     19 C         139.4023  149.4383  154.7147 C.ar    1  UNL1        0.1328
     20 C         138.5365  149.9259  155.8384 C.ar    1  UNL1        0.0565
     21 C         138.9203  151.3448  156.1373 C.ar    1  UNL1        0.1230
     22 N         140.0234  151.7342  155.1984 N.ar    1  UNL1       -0.1665
     23 N         140.3213  150.5559  154.3191 N.ar    1  UNL1       -0.2355
     24 C         141.3564  150.5043  153.2347 C.3     1  UNL1        0.1552
     25 C         138.9558  142.6138  163.5556 C.3     1  UNL1        0.1292
     26 C         140.0544  142.3097  164.5306 C.ar    1  UNL1       -0.0009
     27 C         139.9545  142.7917  165.9475 C.ar    1  UNL1       -0.0025
     28 C         141.0531  142.4875  166.9225 C.ar    1  UNL1        0.0006
     29 C         142.2516  141.7013  166.4805 C.ar    1  UNL1        0.0114
     30 C         142.3516  141.2193  165.0636 C.ar    1  UNL1        0.0574
     31 CL        143.5501  140.4331  164.6216 Cl      1  UNL1       -0.0823
     32 C         141.2530  141.5235  164.0886 C.ar    1  UNL1        0.0088
     33 C         137.5247  142.3875  163.9438 C.3     1  UNL1        0.1614
     34 O         136.6993  141.3736  163.2082 O.3     1  UNL1       -0.3799
     35 H         136.5749  141.6623  162.2906 H       1  UNL1        0.2105
@<TRIPOS>BOND
     1    10    11    1
     2    11    12   ar
     3    12    13   ar
     4    13    14   ar
     5    14    17    1
     6    17    19    1
     7    19    20   ar
     8    20    21   ar
     9    21    22   ar
    10    22    23   ar
    11    23    24    1
    12    14    15   ar
    13    15    16   ar
    14    16     1    1
    15     1     2   ar
    16     2     3   ar
    17     3     4   ar
    18     4     5   ar
    19     4     6   am
    20     6     7    2
    21     6     8   am
    22     8    25    1
    23    25    33    1
    24    33    34    1
    25    25    26    1
    26    26    27   ar
    27    27    28   ar
    28    28    29   ar
    29    29    30   ar
    30    30    31    1
    31    30    32   ar
    32     8     9    1
    33    16    11   ar
    34     5     1   ar
    35    32    26   ar
    36    23    19   ar
    37     9     3    1
    38    17    18    1
    39    34    35    1
@<TRIPOS>MOLECULE
*****
 35 39 0 0 0
SMALL
GASTEIGER

@<TRIPOS>ATOM
      1 C         140.0645  139.4891  160.1586 C.ar    1  UNL1        0.0363
      2 C         141.4268  138.9174  160.4180 C.ar    1  UNL1        0.0179
      3 C         141.8316  138.1195  159.2140 C.ar    1  UNL1        0.0657
      4 N         140.7194  138.1981  158.2105 N.ar    1  UNL1       -0.2630
      5 C         139.6273  139.0445  158.7943 C.ar    1  UNL1        0.0854
      6 C         141.1241  137.4003  157.0065 C.2     1  UNL1        0.3236
      7 O         140.3096  137.2079  155.7617 O.2     1  UNL1       -0.2489
      8 N         142.4865  136.8285  157.2659 N.am    1  UNL1       -0.2514
      9 C         142.9237  137.2731  158.6302 C.3     1  UNL1        0.1398
     10 C         137.7831  138.3204  161.7173 C.3     1  UNL1        0.0342
     11 C         138.1369  139.7691  161.8778 C.ar    1  UNL1        0.0151
     12 C         137.3499  140.6337  162.8177 C.ar    1  UNL1        0.0990
     13 N         137.7036  142.0825  162.9783 N.ar    1  UNL1       -0.2123
     14 C         138.8443  142.6669  162.1990 C.ar    1  UNL1        0.2217
     15 N         139.6312  141.8023  161.2591 N.ar    1  UNL1       -0.2138
     16 C         139.2775  140.3535  161.0985 C.ar    1  UNL1        0.0832
     17 N         139.1981  144.1157  162.3595 N.pl3   1  UNL1       -0.2681
     18 H         138.4972  144.8038  162.2923 H       1  UNL1        0.1565
     19 C         140.6195  144.5160  162.6223 C.ar    1  UNL1        0.1328
     20 C         141.2349  144.7500  163.9701 C.ar    1  UNL1        0.0565
     21 C         142.6709  145.1312  163.7642 C.ar    1  UNL1        0.1230
     22 N         142.9431  145.1329  162.2891 N.ar    1  UNL1       -0.1665
     23 N         141.6753  144.7526  161.5833 N.ar    1  UNL1       -0.2355
     24 C         141.4949  144.6305  160.0993 C.3     1  UNL1        0.1552
     25 C         143.2734  135.9641  156.3260 C.3     1  UNL1        0.1292
     26 C         143.1186  134.4728  156.3710 C.ar    1  UNL1       -0.0009
     27 C         141.9862  133.8139  155.6407 C.ar    1  UNL1       -0.0025
     28 C         141.8314  132.3226  155.6857 C.ar    1  UNL1        0.0006
     29 C         142.8091  131.4901  156.4610 C.ar    1  UNL1        0.0114
     30 C         143.9415  132.1490  157.1913 C.ar    1  UNL1        0.0574
     31 CL        144.9193  131.3166  157.9666 Cl      1  UNL1       -0.0823
     32 C         144.0963  133.6403  157.1463 C.ar    1  UNL1        0.0088
     33 C         144.2152  136.5909  155.3411 C.3     1  UNL1        0.1614
     34 O         144.9701  137.8333  155.7112 O.3     1  UNL1       -0.3799
     35 H         144.3469  138.5671  155.8294 H       1  UNL1        0.2105
@<TRIPOS>BOND
     1    10    11    1
     2    11    12   ar
     3    12    13   ar
     4    13    14   ar
     5    14    17    1
     6    17    19    1
     7    19    20   ar
     8    20    21   ar
     9    21    22   ar
    10    22    23   ar
    11    23    24    1
    12    14    15   ar
    13    15    16   ar
    14    16     1    1
    15     1     2   ar
    16     2     3   ar
    17     3     4   ar
    18     4     5   ar
    19     4     6   am
    20     6     7    2
    21     6     8   am
    22     8    25    1
    23    25    33    1
    24    33    34    1
    25    25    26    1
    26    26    27   ar
    27    27    28   ar
    28    28    29   ar
    29    29    30   ar
    30    30    31    1
    31    30    32   ar
    32     8     9    1
    33    16    11   ar
    34     5     1   ar
    35    32    26   ar
    36    23    19   ar
    37     9     3    1
    38    17    18    1
    39    34    35    1
@<TRIPOS>MOLECULE
*****
 35 39 0 0 0
SMALL
GASTEIGER

@<TRIPOS>ATOM
      1 C         141.2785  138.8178  158.6220 C.ar    1  UNL1        0.0363
      2 C         139.8620  138.5691  159.0484 C.ar    1  UNL1        0.0179
      3 C         139.5945  139.3947  160.2718 C.ar    1  UNL1        0.0657
      4 N         140.8456  140.1537  160.6016 N.ar    1  UNL1       -0.2630
      5 C         141.8864  139.7971  159.5819 C.ar    1  UNL1        0.0854
      6 C         140.5781  140.9793  161.8250 C.2     1  UNL1        0.3236
      7 O         141.5555  141.8932  162.5030 O.2     1  UNL1       -0.2489
      8 N         139.1616  140.7306  162.2514 N.am    1  UNL1       -0.2514
      9 C         138.5538  139.7512  161.2915 C.3     1  UNL1        0.1398
     10 C         141.2359  140.2009  155.9602 C.3     1  UNL1        0.0342
     11 C         141.9450  138.8879  156.1119 C.ar    1  UNL1        0.0151
     12 C         142.6329  138.2663  154.9326 C.ar    1  UNL1        0.0990
     13 N         143.3420  136.9532  155.0843 N.ar    1  UNL1       -0.2123
     14 C         143.3633  136.2617  156.4151 C.ar    1  UNL1        0.2217
     15 N         142.6754  136.8832  157.5944 N.ar    1  UNL1       -0.2138
     16 C         141.9663  138.1963  157.4427 C.ar    1  UNL1        0.0832
     17 N         144.0724  134.9486  156.5668 N.pl3   1  UNL1       -0.2681
     18 H         145.0240  134.9293  156.8183 H       1  UNL1        0.1565
     19 C         143.3316  133.6650  156.3355 C.ar    1  UNL1        0.1328
     20 C         142.0681  133.5068  155.5426 C.ar    1  UNL1        0.0565
     21 C         141.6798  132.0582  155.5736 C.ar    1  UNL1        0.1230
     22 N         142.7033  131.3212  156.3855 N.ar    1  UNL1       -0.1665
     23 N         143.7242  132.3143  156.8565 N.ar    1  UNL1       -0.2355
     24 C         144.9265  132.0100  157.7002 C.3     1  UNL1        0.1552
     25 C         138.4739  141.3521  163.4306 C.3     1  UNL1        0.1292
     26 C         138.7912  140.8799  164.8186 C.ar    1  UNL1       -0.0009
     27 C         138.1831  139.6103  165.3363 C.ar    1  UNL1       -0.0025
     28 C         138.5004  139.1381  166.7243 C.ar    1  UNL1        0.0006
     29 C         139.4259  139.9357  167.5945 C.ar    1  UNL1        0.0114
     30 C         140.0341  141.2054  167.0768 C.ar    1  UNL1        0.0574
     31 CL        140.9596  142.0031  167.9470 Cl      1  UNL1       -0.0823
     32 C         139.7167  141.6775  165.6888 C.ar    1  UNL1        0.0088
     33 C         137.4687  142.4457  163.2220 C.3     1  UNL1        0.1614
     34 O         137.4919  143.2549  161.9592 O.3     1  UNL1       -0.3799
     35 H         138.3089  143.7767  161.9245 H       1  UNL1        0.2105
@<TRIPOS>BOND
     1    10    11    1
     2    11    12   ar
     3    12    13   ar
     4    13    14   ar
     5    14    17    1
     6    17    19    1
     7    19    20   ar
     8    20    21   ar
     9    21    22   ar
    10    22    23   ar
    11    23    24    1
    12    14    15   ar
    13    15    16   ar
    14    16     1    1
    15     1     2   ar
    16     2     3   ar
    17     3     4   ar
    18     4     5   ar
    19     4     6   am
    20     6     7    2
    21     6     8   am
    22     8    25    1
    23    25    33    1
    24    33    34    1
    25    25    26    1
    26    26    27   ar
    27    27    28   ar
    28    28    29   ar
    29    29    30   ar
    30    30    31    1
    31    30    32   ar
    32     8     9    1
    33    16    11   ar
    34     5     1   ar
    35    32    26   ar
    36    23    19   ar
    37     9     3    1
    38    17    18    1
    39    34    35    1
@<TRIPOS>MOLECULE
*****
 35 39 0 0 0
SMALL
GASTEIGER

@<TRIPOS>ATOM
      1 C         142.0552  138.0894  158.9320 C.ar    1  UNL1        0.0363
      2 C         140.7555  138.8382  158.9247 C.ar    1  UNL1        0.0179
      3 C         140.4295  139.2144  160.3397 C.ar    1  UNL1        0.0657
      4 N         141.5277  138.6981  161.2214 N.ar    1  UNL1       -0.2630
      5 C         142.5325  138.0028  160.3514 C.ar    1  UNL1        0.0854
      6 C         141.2017  139.0743  162.6364 C.2     1  UNL1        0.3236
      7 O         142.0300  138.7574  163.8462 O.2     1  UNL1       -0.2489
      8 N         139.9019  139.8232  162.6293 N.am    1  UNL1       -0.2514
      9 C         139.4247  139.9097  161.2098 C.3     1  UNL1        0.1398
     10 C         142.8071  139.8894  156.6527 C.3     1  UNL1        0.0342
     11 C         143.1308  138.4261  156.5911 C.ar    1  UNL1        0.0151
     12 C         143.8305  137.8626  155.3898 C.ar    1  UNL1        0.0990
     13 N         144.1542  136.3993  155.3280 N.ar    1  UNL1       -0.2123
     14 C         143.7782  135.4993  156.4676 C.ar    1  UNL1        0.2217
     15 N         143.0785  136.0627  157.6689 N.ar    1  UNL1       -0.2138
     16 C         142.7548  137.5261  157.7306 C.ar    1  UNL1        0.0832
     17 N         144.1019  134.0360  156.4060 N.pl3   1  UNL1       -0.2681
     18 H         144.9628  133.7073  156.7522 H       1  UNL1        0.1565
     19 C         143.1138  133.0734  155.8167 C.ar    1  UNL1        0.1328
     20 C         141.6864  133.3771  155.4697 C.ar    1  UNL1        0.0565
     21 C         141.0701  132.1295  154.9096 C.ar    1  UNL1        0.1230
     22 N         142.1165  131.0548  154.9105 N.ar    1  UNL1       -0.1665
     23 N         143.3796  131.6382  155.4712 N.ar    1  UNL1       -0.2355
     24 C         144.6801  130.9135  155.6541 C.3     1  UNL1        0.1552
     25 C         139.2024  140.3865  163.8305 C.3     1  UNL1        0.1292
     26 C         139.1596  141.8703  164.0464 C.ar    1  UNL1       -0.0009
     27 C         137.8638  142.5404  164.3952 C.ar    1  UNL1       -0.0025
     28 C         137.8210  144.0243  164.6110 C.ar    1  UNL1        0.0006
     29 C         139.0742  144.8379  164.4780 C.ar    1  UNL1        0.0114
     30 C         140.3700  144.1677  164.1292 C.ar    1  UNL1        0.0574
     31 CL        141.6231  144.9813  163.9962 Cl      1  UNL1       -0.0823
     32 C         140.4127  142.6839  163.9134 C.ar    1  UNL1        0.0088
     33 C         138.5455  139.4661  164.8161 C.3     1  UNL1        0.1614
     34 O         139.3828  138.5630  165.6724 O.3     1  UNL1       -0.3799
     35 H         139.8294  137.9089  165.1123 H       1  UNL1        0.2105
@<TRIPOS>BOND
     1    10    11    1
     2    11    12   ar
     3    12    13   ar
     4    13    14   ar
     5    14    17    1
     6    17    19    1
     7    19    20   ar
     8    20    21   ar
     9    21    22   ar
    10    22    23   ar
    11    23    24    1
    12    14    15   ar
    13    15    16   ar
    14    16     1    1
    15     1     2   ar
    16     2     3   ar
    17     3     4   ar
    18     4     5   ar
    19     4     6   am
    20     6     7    2
    21     6     8   am
    22     8    25    1
    23    25    33    1
    24    33    34    1
    25    25    26    1
    26    26    27   ar
    27    27    28   ar
    28    28    29   ar
    29    29    30   ar
    30    30    31    1
    31    30    32   ar
    32     8     9    1
    33    16    11   ar
    34     5     1   ar
    35    32    26   ar
    36    23    19   ar
    37     9     3    1
    38    17    18    1
    39    34    35    1
