@<TRIPOS>MOLECULE
*****
 39 43 0 0 0
SMALL
GASTEIGER

@<TRIPOS>ATOM
      1 O         145.9497  141.7577  162.8110 O.2     1  UNL1       -0.2749
      2 C         144.7893  142.6585  163.1149 C.2     1  UNL1        0.2256
      3 N         143.8833  143.1134  162.0094 N.am    1  UNL1       -0.2766
      4 C         142.7230  144.0142  162.3133 C.3     1  UNL1        0.1126
      5 C         141.8170  144.4691  161.2078 C.3     1  UNL1        0.1173
      6 N         142.0713  144.0233  159.7983 N.3     1  UNL1       -0.1520
      7 C         143.2316  143.1226  159.4944 C.3     1  UNL1        0.1173
      8 C         144.1376  142.6676  160.5999 C.3     1  UNL1        0.1126
      9 C         144.5350  143.1043  164.5244 C.3     1  UNL1        0.0811
     10 C         144.8787  143.9819  165.6912 C.3     1  UNL1        0.0142
     11 C         143.7509  142.9988  165.7987 C.3     1  UNL1        0.0314
     12 C         142.6470  142.3703  166.5965 C.ar    1  UNL1       -0.0220
     13 C         141.2986  142.1592  165.9745 C.ar    1  UNL1       -0.0043
     14 C         140.1948  141.5306  166.7723 C.ar    1  UNL1        0.0035
     15 C         140.4394  141.1133  168.1921 C.ar    1  UNL1        0.0714
     16 C         141.7879  141.3244  168.8142 C.ar    1  UNL1        0.0035
     17 C         142.8917  141.9529  168.0164 C.ar    1  UNL1       -0.0043
     18 C         139.3355  140.4847  168.9900 C.3     1  UNL1        0.4186
     19 F         138.2317  139.8563  169.7878 F       1  UNL1       -0.1659
     20 F         139.0919  139.5047  167.8809 F       1  UNL1       -0.1659
     21 F         139.5792  141.4647  170.0991 F       1  UNL1       -0.1659
     22 S         141.1653  144.4782  158.6928 S.O2    1  UNL1        0.0634
     23 O         140.3520  143.2269  158.8444 O.2     1  UNL1       -0.1528
     24 O         141.9786  145.7294  158.5412 O.2     1  UNL1       -0.1528
     25 C         140.2593  144.9332  157.5872 C.ar    1  UNL1        0.1222
     26 C         140.1054  146.3969  157.2982 C.ar    1  UNL1        0.0230
     27 C         139.1994  146.8518  156.1926 C.ar    1  UNL1        0.0404
     28 C         138.4474  145.8430  155.3762 C.ar    1  UNL1        0.0071
     29 C         138.6013  144.3792  155.6653 C.ar    1  UNL1        0.0728
     30 C         139.5073  143.9243  156.7708 C.ar    1  UNL1        0.0238
     31 C         139.0454  148.3157  155.9035 C.ar    1  UNL1        0.2038
     32 N         139.5330  149.0282  154.6769 N.ar    1  UNL1       -0.1829
     33 C         139.1657  150.4768  154.8056 C.ar    1  UNL1        0.3164
     34 O         138.4513  150.6596  156.1117 O.2     1  UNL1       -0.3274
     35 N         138.3770  149.3239  156.7903 N.ar    1  UNL1       -0.0554
     36 C         137.8492  143.3703  154.8488 C.3     1  UNL1        0.4186
     37 F         137.0972  142.3614  154.0324 F       1  UNL1       -0.1659
     38 F         139.1296  142.9479  154.1913 F       1  UNL1       -0.1659
     39 F         136.5689  143.7927  155.5063 F       1  UNL1       -0.1659
@<TRIPOS>BOND
     1     1     2    2
     2     9     2    1
     3     9    10    1
     4    10    11    1
     5    11    12    1
     6    12    13   ar
     7    13    14   ar
     8    14    15   ar
     9    15    18    1
    10    18    19    1
    11    18    20    1
    12    18    21    1
    13    15    16   ar
    14    16    17   ar
    15     2     3   am
    16     3     4    1
    17     4     5    1
    18     5     6    1
    19     6    22    1
    20    22    23    2
    21    22    24    2
    22    22    25    1
    23    25    26   ar
    24    26    27   ar
    25    27    31    1
    26    31    32   ar
    27    32    33   ar
    28    33    34   ar
    29    34    35   ar
    30    27    28   ar
    31    28    29   ar
    32    29    36    1
    33    36    37    1
    34    36    38    1
    35    36    39    1
    36    29    30   ar
    37     6     7    1
    38     7     8    1
    39    11     9    1
    40    17    12   ar
    41     8     3    1
    42    30    25   ar
    43    35    31   ar
@<TRIPOS>MOLECULE
*****
 39 43 0 0 0
SMALL
GASTEIGER

@<TRIPOS>ATOM
      1 O         145.9475  141.6889  162.9148 O.2     1  UNL1       -0.2749
      2 C         144.7834  142.5908  163.2004 C.2     1  UNL1        0.2256
      3 N         143.8803  143.0259  162.0846 N.am    1  UNL1       -0.2766
      4 C         142.7162  143.9278  162.3702 C.3     1  UNL1        0.1126
      5 C         141.8131  144.3629  161.2543 C.3     1  UNL1        0.1173
      6 N         142.0740  143.8960  159.8529 N.3     1  UNL1       -0.1520
      7 C         143.2380  142.9942  159.5673 C.3     1  UNL1        0.1173
      8 C         144.1412  142.5590  160.6831 C.3     1  UNL1        0.1126
      9 C         144.5225  143.0577  164.6018 C.3     1  UNL1        0.0811
     10 C         144.8613  143.9520  165.7573 C.3     1  UNL1        0.0142
     11 C         143.7318  142.9719  165.8735 C.3     1  UNL1        0.0314
     12 C         142.6230  142.3565  166.6749 C.ar    1  UNL1       -0.0220
     13 C         141.2818  142.1243  166.0448 C.ar    1  UNL1       -0.0043
     14 C         140.1731  141.5090  166.8461 C.ar    1  UNL1        0.0035
     15 C         140.4058  141.1257  168.2775 C.ar    1  UNL1        0.0714
     16 C         141.7470  141.3578  168.9076 C.ar    1  UNL1        0.0035
     17 C         142.8557  141.9732  168.1063 C.ar    1  UNL1       -0.0043
     18 C         139.2970  140.5103  169.0789 C.3     1  UNL1        0.4186
     19 F         138.1884  139.8949  169.8802 F       1  UNL1       -0.1659
     20 F         139.0848  139.4889  168.0010 F       1  UNL1       -0.1659
     21 F         139.5092  141.5316  170.1567 F       1  UNL1       -0.1659
     22 S         141.1709  144.3311  158.7371 S.O2    1  UNL1        0.0634
     23 O         141.7969  145.6940  158.7617 O.2     1  UNL1       -0.1528
     24 O         140.5448  142.9682  158.7125 O.2     1  UNL1       -0.1528
     25 C         140.2677  144.7661  157.6212 C.ar    1  UNL1        0.1222
     26 C         139.5186  143.7427  156.8204 C.ar    1  UNL1        0.0230
     27 C         138.6155  144.1778  155.7046 C.ar    1  UNL1        0.0404
     28 C         138.4614  145.6362  155.3897 C.ar    1  UNL1        0.0071
     29 C         139.2105  146.6596  156.1905 C.ar    1  UNL1        0.0728
     30 C         140.1136  146.2246  157.3063 C.ar    1  UNL1        0.0238
     31 C         137.8663  143.1543  154.9036 C.ar    1  UNL1        0.2038
     32 N         136.3934  143.1622  154.6199 N.ar    1  UNL1       -0.1829
     33 C         136.0754  141.9561  153.7867 C.ar    1  UNL1        0.3164
     34 O         137.3518  141.2029  153.5554 O.2     1  UNL1       -0.3274
     35 N         138.4586  141.9435  154.2457 N.ar    1  UNL1       -0.0554
     36 C         139.0565  148.1181  155.8756 C.3     1  UNL1        0.4186
     37 F         138.9024  149.5766  155.5607 F       1  UNL1       -0.1659
     38 F         139.4556  147.8533  154.4542 F       1  UNL1       -0.1659
     39 F         138.6573  148.3829  157.2971 F       1  UNL1       -0.1659
@<TRIPOS>BOND
     1     1     2    2
     2     9     2    1
     3     9    10    1
     4    10    11    1
     5    11    12    1
     6    12    13   ar
     7    13    14   ar
     8    14    15   ar
     9    15    18    1
    10    18    19    1
    11    18    20    1
    12    18    21    1
    13    15    16   ar
    14    16    17   ar
    15     2     3   am
    16     3     4    1
    17     4     5    1
    18     5     6    1
    19     6    22    1
    20    22    23    2
    21    22    24    2
    22    22    25    1
    23    25    26   ar
    24    26    27   ar
    25    27    31    1
    26    31    32   ar
    27    32    33   ar
    28    33    34   ar
    29    34    35   ar
    30    27    28   ar
    31    28    29   ar
    32    29    36    1
    33    36    37    1
    34    36    38    1
    35    36    39    1
    36    29    30   ar
    37     6     7    1
    38     7     8    1
    39    11     9    1
    40    17    12   ar
    41     8     3    1
    42    30    25   ar
    43    35    31   ar
@<TRIPOS>MOLECULE
*****
 39 43 0 0 0
SMALL
GASTEIGER

@<TRIPOS>ATOM
      1 O         144.0957  139.7081  157.9093 O.2     1  UNL1       -0.2749
      2 C         142.8907  138.9394  158.3646 C.2     1  UNL1        0.2256
      3 N         142.3836  139.1014  159.7669 N.am    1  UNL1       -0.2766
      4 C         141.1786  138.3327  160.2222 C.3     1  UNL1        0.1126
      5 C         140.6715  138.4946  161.6245 C.3     1  UNL1        0.1173
      6 N         141.3693  139.4252  162.5716 N.3     1  UNL1       -0.1520
      7 C         142.5742  140.1939  162.1164 C.3     1  UNL1        0.1173
      8 C         143.0814  140.0320  160.7140 C.3     1  UNL1        0.1126
      9 C         142.1929  138.0088  157.4175 C.3     1  UNL1        0.0811
     10 C         141.0535  137.7167  156.4867 C.3     1  UNL1        0.0142
     11 C         142.1237  136.6891  156.7078 C.3     1  UNL1        0.0314
     12 C         142.7016  135.3339  156.4258 C.ar    1  UNL1       -0.0220
     13 C         143.5599  134.6562  157.4523 C.ar    1  UNL1       -0.0043
     14 C         144.1378  133.3010  157.1703 C.ar    1  UNL1        0.0035
     15 C         143.8574  132.6237  155.8616 C.ar    1  UNL1        0.0714
     16 C         142.9991  133.3014  154.8351 C.ar    1  UNL1        0.0035
     17 C         142.4212  134.6566  155.1171 C.ar    1  UNL1       -0.0043
     18 C         144.4353  131.2685  155.5796 C.3     1  UNL1        0.4186
     19 F         145.0132  129.9133  155.2975 F       1  UNL1       -0.1659
     20 F         145.6020  131.5809  156.4690 F       1  UNL1       -0.1659
     21 F         143.2686  130.9561  154.6902 F       1  UNL1       -0.1659
     22 S         140.8622  139.5872  163.9739 S.O2    1  UNL1        0.0634
     23 O         139.5631  138.9504  163.5777 O.2     1  UNL1       -0.1528
     24 O         142.1612  140.2239  164.3702 O.2     1  UNL1       -0.1528
     25 C         140.3551  139.7491  165.3764 C.ar    1  UNL1        0.1222
     26 C         141.0562  140.6755  166.3251 C.ar    1  UNL1        0.0230
     27 C         140.5491  140.8375  167.7274 C.ar    1  UNL1        0.0404
     28 C         139.3409  140.0730  168.1810 C.ar    1  UNL1        0.0071
     29 C         138.6397  139.1466  167.2323 C.ar    1  UNL1        0.0728
     30 C         139.1468  138.9847  165.8300 C.ar    1  UNL1        0.0238
     31 C         141.2503  141.7639  168.6763 C.ar    1  UNL1        0.2038
     32 N         142.6432  141.5945  169.2062 N.ar    1  UNL1       -0.1829
     33 C         142.9354  142.7482  170.1192 C.ar    1  UNL1        0.3164
     34 O         141.7229  143.6307  170.1534 O.2     1  UNL1       -0.3274
     35 N         140.6815  143.0223  169.2616 N.ar    1  UNL1       -0.0554
     36 C         137.4315  138.3822  167.6859 C.3     1  UNL1        0.4186
     37 F         136.2232  137.6177  168.1395 F       1  UNL1       -0.1659
     38 F         137.4312  137.6170  166.3957 F       1  UNL1       -0.1659
     39 F         137.4317  139.1473  168.9760 F       1  UNL1       -0.1659
@<TRIPOS>BOND
     1     1     2    2
     2     9     2    1
     3     9    10    1
     4    10    11    1
     5    11    12    1
     6    12    13   ar
     7    13    14   ar
     8    14    15   ar
     9    15    18    1
    10    18    19    1
    11    18    20    1
    12    18    21    1
    13    15    16   ar
    14    16    17   ar
    15     2     3   am
    16     3     4    1
    17     4     5    1
    18     5     6    1
    19     6    22    1
    20    22    23    2
    21    22    24    2
    22    22    25    1
    23    25    26   ar
    24    26    27   ar
    25    27    31    1
    26    31    32   ar
    27    32    33   ar
    28    33    34   ar
    29    34    35   ar
    30    27    28   ar
    31    28    29   ar
    32    29    36    1
    33    36    37    1
    34    36    38    1
    35    36    39    1
    36    29    30   ar
    37     6     7    1
    38     7     8    1
    39    11     9    1
    40    17    12   ar
    41     8     3    1
    42    30    25   ar
    43    35    31   ar
@<TRIPOS>MOLECULE
*****
 39 43 0 0 0
SMALL
GASTEIGER

@<TRIPOS>ATOM
      1 O         142.8867  144.2343  157.8716 O.2     1  UNL1       -0.2749
      2 C         141.4612  144.0038  158.2777 C.2     1  UNL1        0.2256
      3 N         141.1495  143.4302  159.6281 N.am    1  UNL1       -0.2766
      4 C         139.7239  143.1998  160.0342 C.3     1  UNL1        0.1126
      5 C         139.4122  142.6261  161.3847 C.3     1  UNL1        0.1173
      6 N         140.5259  142.2829  162.3290 N.3     1  UNL1       -0.1520
      7 C         141.9514  142.5133  161.9230 C.3     1  UNL1        0.1173
      8 C         142.2632  143.0869  160.5725 C.3     1  UNL1        0.1126
      9 C         140.3475  144.3471  157.3333 C.3     1  UNL1        0.0811
     10 C         139.1271  143.9409  156.5617 C.3     1  UNL1        0.0142
     11 C         139.6390  145.3478  156.4693 C.3     1  UNL1        0.0314
     12 C         139.5256  146.7379  155.9171 C.ar    1  UNL1       -0.0220
     13 C         140.0906  147.0560  154.5645 C.ar    1  UNL1       -0.0043
     14 C         139.9772  148.4461  154.0124 C.ar    1  UNL1        0.0035
     15 C         139.2986  149.5179  154.8128 C.ar    1  UNL1        0.0714
     16 C         138.7335  149.1998  156.1653 C.ar    1  UNL1        0.0035
     17 C         138.8470  147.8098  156.7175 C.ar    1  UNL1       -0.0043
     18 C         139.1852  150.9080  154.2606 C.3     1  UNL1        0.4186
     19 F         139.0717  152.2980  153.7084 F       1  UNL1       -0.1659
     20 F         140.2430  150.5911  153.2454 F       1  UNL1       -0.1659
     21 F         138.1274  151.2249  155.2757 F       1  UNL1       -0.1659
     22 S         140.2141  141.7092  163.6794 S.O2    1  UNL1        0.0634
     23 O         139.2301  142.8151  163.9221 O.2     1  UNL1       -0.1528
     24 O         141.1981  140.6034  163.4368 O.2     1  UNL1       -0.1528
     25 C         139.9024  141.1355  165.0299 C.ar    1  UNL1        0.1222
     26 C         140.3852  141.8292  166.2691 C.ar    1  UNL1        0.0230
     27 C         140.0734  141.2554  167.6195 C.ar    1  UNL1        0.0404
     28 C         139.2789  139.9880  167.7307 C.ar    1  UNL1        0.0071
     29 C         138.7961  139.2943  166.4915 C.ar    1  UNL1        0.0728
     30 C         139.1079  139.8680  165.1411 C.ar    1  UNL1        0.0238
     31 C         140.5562  141.9491  168.8588 C.ar    1  UNL1        0.2038
     32 N         141.4482  141.3575  169.9097 N.ar    1  UNL1       -0.1829
     33 C         141.6750  142.3990  170.9651 C.ar    1  UNL1        0.3164
     34 O         140.9232  143.6342  170.5665 O.2     1  UNL1       -0.3274
     35 N         140.2318  143.3562  169.2647 N.ar    1  UNL1       -0.0554
     36 C         138.0016  138.0269  166.6027 C.3     1  UNL1        0.4186
     37 F         137.2071  136.7595  166.7139 F       1  UNL1       -0.1659
     38 F         137.2729  138.5877  167.7878 F       1  UNL1       -0.1659
     39 F         138.7304  137.4661  165.4176 F       1  UNL1       -0.1659
@<TRIPOS>BOND
     1     1     2    2
     2     9     2    1
     3     9    10    1
     4    10    11    1
     5    11    12    1
     6    12    13   ar
     7    13    14   ar
     8    14    15   ar
     9    15    18    1
    10    18    19    1
    11    18    20    1
    12    18    21    1
    13    15    16   ar
    14    16    17   ar
    15     2     3   am
    16     3     4    1
    17     4     5    1
    18     5     6    1
    19     6    22    1
    20    22    23    2
    21    22    24    2
    22    22    25    1
    23    25    26   ar
    24    26    27   ar
    25    27    31    1
    26    31    32   ar
    27    32    33   ar
    28    33    34   ar
    29    34    35   ar
    30    27    28   ar
    31    28    29   ar
    32    29    36    1
    33    36    37    1
    34    36    38    1
    35    36    39    1
    36    29    30   ar
    37     6     7    1
    38     7     8    1
    39    11     9    1
    40    17    12   ar
    41     8     3    1
    42    30    25   ar
    43    35    31   ar
@<TRIPOS>MOLECULE
*****
 39 43 0 0 0
SMALL
GASTEIGER

@<TRIPOS>ATOM
      1 O         144.3387  144.0473  162.1011 O.2     1  UNL1       -0.2749
      2 C         143.1507  143.1444  162.2548 C.2     1  UNL1        0.2256
      3 N         142.9440  142.0075  161.2984 N.am    1  UNL1       -0.2766
      4 C         141.7560  141.1046  161.4522 C.3     1  UNL1        0.1126
      5 C         141.5493  139.9677  160.4958 C.3     1  UNL1        0.1173
      6 N         142.5305  139.7336  159.3857 N.3     1  UNL1       -0.1520
      7 C         143.7185  140.6364  159.2319 C.3     1  UNL1        0.1173
      8 C         143.9252  141.7734  160.1883 C.3     1  UNL1        0.1126
      9 C         142.1694  143.3785  163.3649 C.3     1  UNL1        0.0811
     10 C         141.4892  144.3118  164.3221 C.3     1  UNL1        0.0142
     11 C         141.1501  142.8507  164.3304 C.3     1  UNL1        0.0314
     12 C         140.3657  141.7023  164.8927 C.ar    1  UNL1       -0.0220
     13 C         138.9890  141.4091  164.3742 C.ar    1  UNL1       -0.0043
     14 C         138.2047  140.2608  164.9365 C.ar    1  UNL1        0.0035
     15 C         138.7970  139.4057  166.0172 C.ar    1  UNL1        0.0714
     16 C         140.1737  139.6989  166.5356 C.ar    1  UNL1        0.0035
     17 C         140.9580  140.8472  165.9734 C.ar    1  UNL1       -0.0043
     18 C         138.0127  138.2573  166.5794 C.3     1  UNL1        0.4186
     19 F         137.2283  137.1090  167.1416 F       1  UNL1       -0.1659
     20 F         137.6428  139.0924  167.7692 F       1  UNL1       -0.1659
     21 F         138.3825  137.4222  165.3896 F       1  UNL1       -0.1659
     22 S         142.3238  138.5967  158.4293 S.O2    1  UNL1        0.0634
     23 O         141.4259  139.4616  157.5951 O.2     1  UNL1       -0.1528
     24 O         143.2217  137.7318  159.2635 O.2     1  UNL1       -0.1528
     25 C         142.1172  137.4597  157.4730 C.ar    1  UNL1        0.1222
     26 C         142.9830  136.2381  157.5619 C.ar    1  UNL1        0.0230
     27 C         142.7763  135.1012  156.6055 C.ar    1  UNL1        0.0404
     28 C         141.7038  135.1859  155.5603 C.ar    1  UNL1        0.0071
     29 C         140.8380  136.4075  155.4714 C.ar    1  UNL1        0.0728
     30 C         141.0447  137.5444  156.4277 C.ar    1  UNL1        0.0238
     31 C         143.6421  133.8794  156.6944 C.ar    1  UNL1        0.2038
     32 N         144.3690  133.4009  157.9161 N.ar    1  UNL1       -0.1829
     33 C         145.1092  132.1475  157.5539 C.ar    1  UNL1        0.3164
     34 O         144.8397  131.8515  156.1083 O.2     1  UNL1       -0.3274
     35 N         143.9330  132.9219  155.5771 N.ar    1  UNL1       -0.0554
     36 C         139.7654  136.4922  154.4261 C.3     1  UNL1        0.4186
     37 F         138.6929  136.5769  153.3809 F       1  UNL1       -0.1659
     38 F         138.7630  136.8483  155.4836 F       1  UNL1       -0.1659
     39 F         140.7679  136.1361  153.3686 F       1  UNL1       -0.1659
@<TRIPOS>BOND
     1     1     2    2
     2     9     2    1
     3     9    10    1
     4    10    11    1
     5    11    12    1
     6    12    13   ar
     7    13    14   ar
     8    14    15   ar
     9    15    18    1
    10    18    19    1
    11    18    20    1
    12    18    21    1
    13    15    16   ar
    14    16    17   ar
    15     2     3   am
    16     3     4    1
    17     4     5    1
    18     5     6    1
    19     6    22    1
    20    22    23    2
    21    22    24    2
    22    22    25    1
    23    25    26   ar
    24    26    27   ar
    25    27    31    1
    26    31    32   ar
    27    32    33   ar
    28    33    34   ar
    29    34    35   ar
    30    27    28   ar
    31    28    29   ar
    32    29    36    1
    33    36    37    1
    34    36    38    1
    35    36    39    1
    36    29    30   ar
    37     6     7    1
    38     7     8    1
    39    11     9    1
    40    17    12   ar
    41     8     3    1
    42    30    25   ar
    43    35    31   ar
@<TRIPOS>MOLECULE
*****
 39 43 0 0 0
SMALL
GASTEIGER

@<TRIPOS>ATOM
      1 O         144.1891  138.9780  156.4413 O.2     1  UNL1       -0.2749
      2 C         143.0587  138.3637  157.2128 C.2     1  UNL1        0.2256
      3 N         142.7026  138.8926  158.5705 N.am    1  UNL1       -0.2766
      4 C         141.5723  138.2784  159.3419 C.3     1  UNL1        0.1126
      5 C         141.2162  138.8073  160.6996 C.3     1  UNL1        0.1173
      6 N         141.9903  139.9505  161.2860 N.3     1  UNL1       -0.1520
      7 C         143.1206  140.5647  160.5146 C.3     1  UNL1        0.1173
      8 C         143.4768  140.0358  159.1568 C.3     1  UNL1        0.1126
      9 C         142.2845  137.2206  156.6265 C.3     1  UNL1        0.0811
     10 C         141.0164  136.6765  156.0385 C.3     1  UNL1        0.0142
     11 C         142.2118  135.7847  156.1989 C.3     1  UNL1        0.0314
     12 C         142.8599  134.4407  156.0447 C.ar    1  UNL1       -0.0220
     13 C         143.8408  133.9587  157.0721 C.ar    1  UNL1       -0.0043
     14 C         144.4889  132.6149  156.9178 C.ar    1  UNL1        0.0035
     15 C         144.1561  131.7529  155.7362 C.ar    1  UNL1        0.0714
     16 C         143.1753  132.2348  154.7088 C.ar    1  UNL1        0.0035
     17 C         142.5272  133.5787  154.8630 C.ar    1  UNL1       -0.0043
     18 C         144.8043  130.4089  155.5819 C.3     1  UNL1        0.4186
     19 F         145.4524  129.0650  155.4277 F       1  UNL1       -0.1659
     20 F         145.0232  130.3443  157.0644 F       1  UNL1       -0.1659
     21 F         144.5855  130.4736  154.0994 F       1  UNL1       -0.1659
     22 S         141.6342  140.4794  162.6437 S.O2    1  UNL1        0.0634
     23 O         140.2233  140.0050  162.4585 O.2     1  UNL1       -0.1528
     24 O         143.0451  140.9538  162.8289 O.2     1  UNL1       -0.1528
     25 C         141.2782  141.0083  164.0014 C.ar    1  UNL1        0.1222
     26 C         141.7253  140.2769  165.2322 C.ar    1  UNL1        0.0230
     27 C         141.3692  140.8058  166.5899 C.ar    1  UNL1        0.0404
     28 C         140.5660  142.0663  166.7168 C.ar    1  UNL1        0.0071
     29 C         140.1189  142.7978  165.4860 C.ar    1  UNL1        0.0728
     30 C         140.4749  142.2688  164.1283 C.ar    1  UNL1        0.0238
     31 C         141.8164  140.0743  167.8208 C.ar    1  UNL1        0.2038
     32 N         141.1838  140.1633  169.1780 N.ar    1  UNL1       -0.1829
     33 C         141.9511  139.2694  170.1066 C.ar    1  UNL1        0.3164
     34 O         143.0578  138.6280  169.3233 O.2     1  UNL1       -0.3274
     35 N         142.9746  139.1255  167.9106 N.ar    1  UNL1       -0.0554
     36 C         139.3156  144.0582  165.6129 C.3     1  UNL1        0.4186
     37 F         138.5124  145.3187  165.7397 F       1  UNL1       -0.1659
     38 F         139.5886  144.0837  167.0876 F       1  UNL1       -0.1659
     39 F         139.0427  144.0327  164.1381 F       1  UNL1       -0.1659
@<TRIPOS>BOND
     1     1     2    2
     2     9     2    1
     3     9    10    1
     4    10    11    1
     5    11    12    1
     6    12    13   ar
     7    13    14   ar
     8    14    15   ar
     9    15    18    1
    10    18    19    1
    11    18    20    1
    12    18    21    1
    13    15    16   ar
    14    16    17   ar
    15     2     3   am
    16     3     4    1
    17     4     5    1
    18     5     6    1
    19     6    22    1
    20    22    23    2
    21    22    24    2
    22    22    25    1
    23    25    26   ar
    24    26    27   ar
    25    27    31    1
    26    31    32   ar
    27    32    33   ar
    28    33    34   ar
    29    34    35   ar
    30    27    28   ar
    31    28    29   ar
    32    29    36    1
    33    36    37    1
    34    36    38    1
    35    36    39    1
    36    29    30   ar
    37     6     7    1
    38     7     8    1
    39    11     9    1
    40    17    12   ar
    41     8     3    1
    42    30    25   ar
    43    35    31   ar
@<TRIPOS>MOLECULE
*****
 39 43 0 0 0
SMALL
GASTEIGER

@<TRIPOS>ATOM
      1 O         144.5055  139.7858  156.8766 O.2     1  UNL1       -0.2749
      2 C         143.3665  138.9657  157.4059 C.2     1  UNL1        0.2256
      3 N         142.9363  139.1139  158.8352 N.am    1  UNL1       -0.2766
      4 C         141.7973  138.2938  159.3646 C.3     1  UNL1        0.1126
      5 C         141.3670  138.4420  160.7938 C.3     1  UNL1        0.1173
      6 N         142.0758  139.4103  161.6938 N.3     1  UNL1       -0.1520
      7 C         143.2147  140.2304  161.1646 C.3     1  UNL1        0.1173
      8 C         143.6450  140.0822  159.7352 C.3     1  UNL1        0.1126
      9 C         142.6578  137.9973  156.5059 C.3     1  UNL1        0.0811
     10 C         141.6257  137.7184  155.4538 C.3     1  UNL1        0.0142
     11 C         142.4624  136.5992  155.9992 C.3     1  UNL1        0.0314
     12 C         142.8326  135.1457  156.0214 C.ar    1  UNL1       -0.0220
     13 C         142.6802  134.3138  154.7826 C.ar    1  UNL1       -0.0043
     14 C         143.0504  132.8605  154.8049 C.ar    1  UNL1        0.0035
     15 C         143.5731  132.2389  156.0661 C.ar    1  UNL1        0.0714
     16 C         143.7255  133.0708  157.3049 C.ar    1  UNL1        0.0035
     17 C         143.3553  134.5242  157.2826 C.ar    1  UNL1       -0.0043
     18 C         143.9433  130.7854  156.0884 C.3     1  UNL1        0.4186
     19 F         144.3135  129.3320  156.1107 F       1  UNL1       -0.1659
     20 F         145.3742  131.1457  155.8187 F       1  UNL1       -0.1659
     21 F         142.5124  130.4252  156.3581 F       1  UNL1       -0.1659
     22 S         141.6455  139.5586  163.1231 S.O2    1  UNL1        0.0634
     23 O         141.2837  140.9914  162.8657 O.2     1  UNL1       -0.1528
     24 O         142.0073  138.1258  163.3806 O.2     1  UNL1       -0.1528
     25 C         141.2153  139.7068  164.5525 C.ar    1  UNL1        0.1222
     26 C         142.0934  140.4319  165.5287 C.ar    1  UNL1        0.0230
     27 C         141.6631  140.5800  166.9580 C.ar    1  UNL1        0.0404
     28 C         140.3548  140.0031  167.4110 C.ar    1  UNL1        0.0071
     29 C         139.4766  139.2780  166.4348 C.ar    1  UNL1        0.0728
     30 C         139.9069  139.1298  165.0055 C.ar    1  UNL1        0.0238
     31 C         142.5413  141.3052  167.9343 C.ar    1  UNL1        0.2038
     32 N         142.7344  140.9504  169.3789 N.ar    1  UNL1       -0.1829
     33 C         143.6929  141.9383  169.9748 C.ar    1  UNL1        0.3164
     34 O         144.0922  142.9038  168.8985 O.2     1  UNL1       -0.3274
     35 N         143.3805  142.5124  167.6374 N.ar    1  UNL1       -0.0554
     36 C         138.1683  138.7010  166.8879 C.3     1  UNL1        0.4186
     37 F         136.8599  138.1240  167.3409 F       1  UNL1       -0.1659
     38 F         138.2542  139.5004  168.1542 F       1  UNL1       -0.1659
     39 F         138.0823  137.9016  165.6216 F       1  UNL1       -0.1659
@<TRIPOS>BOND
     1     1     2    2
     2     9     2    1
     3     9    10    1
     4    10    11    1
     5    11    12    1
     6    12    13   ar
     7    13    14   ar
     8    14    15   ar
     9    15    18    1
    10    18    19    1
    11    18    20    1
    12    18    21    1
    13    15    16   ar
    14    16    17   ar
    15     2     3   am
    16     3     4    1
    17     4     5    1
    18     5     6    1
    19     6    22    1
    20    22    23    2
    21    22    24    2
    22    22    25    1
    23    25    26   ar
    24    26    27   ar
    25    27    31    1
    26    31    32   ar
    27    32    33   ar
    28    33    34   ar
    29    34    35   ar
    30    27    28   ar
    31    28    29   ar
    32    29    36    1
    33    36    37    1
    34    36    38    1
    35    36    39    1
    36    29    30   ar
    37     6     7    1
    38     7     8    1
    39    11     9    1
    40    17    12   ar
    41     8     3    1
    42    30    25   ar
    43    35    31   ar
@<TRIPOS>MOLECULE
*****
 39 43 0 0 0
SMALL
GASTEIGER

@<TRIPOS>ATOM
      1 O         142.3304  145.3554  158.3395 O.2     1  UNL1       -0.2749
      2 C         142.2835  143.8678  158.5264 C.2     1  UNL1        0.2256
      3 N         141.8496  143.2904  159.8410 N.am    1  UNL1       -0.2766
      4 C         141.8028  141.8027  160.0279 C.3     1  UNL1        0.1126
      5 C         141.3689  141.2253  161.3425 C.3     1  UNL1        0.1173
      6 N         140.9818  142.1354  162.4703 N.3     1  UNL1       -0.1520
      7 C         141.0286  143.6229  162.2834 C.3     1  UNL1        0.1173
      8 C         141.4625  144.2005  160.9688 C.3     1  UNL1        0.1126
      9 C         142.6707  142.9577  157.3987 C.3     1  UNL1        0.0811
     10 C         142.2849  141.9908  156.3188 C.3     1  UNL1        0.0142
     11 C         143.7269  142.3483  156.5252 C.3     1  UNL1        0.0314
     12 C         145.1694  142.2030  156.1401 C.ar    1  UNL1       -0.0220
     13 C         146.2470  142.5410  157.1273 C.ar    1  UNL1       -0.0043
     14 C         147.6893  142.3956  156.7422 C.ar    1  UNL1        0.0035
     15 C         148.0542  141.9122  155.3699 C.ar    1  UNL1        0.0714
     16 C         146.9766  141.5742  154.3827 C.ar    1  UNL1        0.0035
     17 C         145.5342  141.7196  154.7678 C.ar    1  UNL1       -0.0043
     18 C         149.4966  141.7669  154.9848 C.3     1  UNL1        0.4186
     19 F         150.9390  141.6215  154.5997 F       1  UNL1       -0.1659
     20 F         149.9060  142.1265  156.3823 F       1  UNL1       -0.1659
     21 F         149.0873  141.4073  153.5873 F       1  UNL1       -0.1659
     22 S         140.5479  141.5579  163.7849 S.O2    1  UNL1        0.0634
     23 O         139.5003  140.7459  163.0825 O.2     1  UNL1       -0.1528
     24 O         141.5953  142.3700  164.4873 O.2     1  UNL1       -0.1528
     25 C         140.1140  140.9805  165.0996 C.ar    1  UNL1        0.1222
     26 C         140.4840  141.6690  166.3798 C.ar    1  UNL1        0.0230
     27 C         140.0500  141.0915  167.6944 C.ar    1  UNL1        0.0404
     28 C         139.2461  139.8256  167.7288 C.ar    1  UNL1        0.0071
     29 C         138.8761  139.1371  166.4485 C.ar    1  UNL1        0.0728
     30 C         139.3100  139.7146  165.1339 C.ar    1  UNL1        0.0238
     31 C         140.4200  141.7800  168.9748 C.ar    1  UNL1        0.2038
     32 N         140.8635  141.1085  170.2406 N.ar    1  UNL1       -0.1829
     33 C         141.1291  142.1743  171.2622 C.ar    1  UNL1        0.3164
     34 O         140.8497  143.5045  170.6276 O.2     1  UNL1       -0.3274
     35 N         140.4115  143.2607  169.2139 N.ar    1  UNL1       -0.0554
     36 C         138.0722  137.8712  166.4829 C.3     1  UNL1        0.4186
     37 F         137.2683  136.6053  166.5173 F       1  UNL1       -0.1659
     38 F         137.2604  138.4176  167.6197 F       1  UNL1       -0.1659
     39 F         138.8841  137.3248  165.3461 F       1  UNL1       -0.1659
@<TRIPOS>BOND
     1     1     2    2
     2     9     2    1
     3     9    10    1
     4    10    11    1
     5    11    12    1
     6    12    13   ar
     7    13    14   ar
     8    14    15   ar
     9    15    18    1
    10    18    19    1
    11    18    20    1
    12    18    21    1
    13    15    16   ar
    14    16    17   ar
    15     2     3   am
    16     3     4    1
    17     4     5    1
    18     5     6    1
    19     6    22    1
    20    22    23    2
    21    22    24    2
    22    22    25    1
    23    25    26   ar
    24    26    27   ar
    25    27    31    1
    26    31    32   ar
    27    32    33   ar
    28    33    34   ar
    29    34    35   ar
    30    27    28   ar
    31    28    29   ar
    32    29    36    1
    33    36    37    1
    34    36    38    1
    35    36    39    1
    36    29    30   ar
    37     6     7    1
    38     7     8    1
    39    11     9    1
    40    17    12   ar
    41     8     3    1
    42    30    25   ar
    43    35    31   ar
@<TRIPOS>MOLECULE
*****
 39 43 0 0 0
SMALL
GASTEIGER

@<TRIPOS>ATOM
      1 O         138.5349  137.2694  155.7271 O.2     1  UNL1       -0.2749
      2 C         139.9593  137.1242  156.1743 C.2     1  UNL1        0.2256
      3 N         140.4420  137.8576  157.3905 N.am    1  UNL1       -0.2766
      4 C         141.8665  137.7124  157.8377 C.3     1  UNL1        0.1126
      5 C         142.3492  138.4457  159.0539 C.3     1  UNL1        0.1173
      6 N         141.4076  139.3243  159.8229 N.3     1  UNL1       -0.1520
      7 C         139.9832  139.4695  159.3758 C.3     1  UNL1        0.1173
      8 C         139.5004  138.7361  158.1595 C.3     1  UNL1        0.1126
      9 C         140.9010  136.2457  155.4053 C.3     1  UNL1        0.0811
     10 C         141.5830  135.8848  154.1190 C.3     1  UNL1        0.0142
     11 C         141.8499  135.0849  155.3596 C.3     1  UNL1        0.0314
     12 C         142.5519  133.9529  156.0495 C.ar    1  UNL1       -0.0220
     13 C         143.6937  134.2345  156.9805 C.ar    1  UNL1       -0.0043
     14 C         144.3956  133.1025  157.6703 C.ar    1  UNL1        0.0035
     15 C         143.9556  131.6889  157.4291 C.ar    1  UNL1        0.0714
     16 C         142.8138  131.4073  156.4981 C.ar    1  UNL1        0.0035
     17 C         142.1119  132.5393  155.8083 C.ar    1  UNL1       -0.0043
     18 C         144.6576  130.5569  158.1190 C.3     1  UNL1        0.4186
     19 F         145.3594  129.4249  158.8088 F       1  UNL1       -0.1659
     20 F         145.8575  131.4312  158.3328 F       1  UNL1       -0.1659
     21 F         143.4577  129.6826  157.9052 F       1  UNL1       -0.1659
     22 S         141.8903  140.0576  161.0391 S.O2    1  UNL1        0.0634
     23 O         143.0614  140.5789  160.2600 O.2     1  UNL1       -0.1528
     24 O         140.7193  139.5364  161.8182 O.2     1  UNL1       -0.1528
     25 C         142.3730  140.7910  162.2554 C.ar    1  UNL1        0.1222
     26 C         142.4099  140.0966  163.5844 C.ar    1  UNL1        0.0230
     27 C         142.8926  140.8300  164.8006 C.ar    1  UNL1        0.0404
     28 C         143.3384  142.2577  164.6877 C.ar    1  UNL1        0.0071
     29 C         143.3014  142.9522  163.3587 C.ar    1  UNL1        0.0728
     30 C         142.8188  142.2188  162.1425 C.ar    1  UNL1        0.0238
     31 C         142.9295  140.1356  166.1297 C.ar    1  UNL1        0.2038
     32 N         142.3913  140.6752  167.4217 N.ar    1  UNL1       -0.1829
     33 C         142.6403  139.6527  168.4906 C.ar    1  UNL1        0.3164
     34 O         143.3324  138.4813  167.8593 O.2     1  UNL1       -0.3274
     35 N         143.5111  138.7797  166.4002 N.ar    1  UNL1       -0.0554
     36 C         143.7472  144.3799  163.2458 C.3     1  UNL1        0.4186
     37 F         144.1930  145.8077  163.1330 F       1  UNL1       -0.1659
     38 F         142.7226  144.7804  164.2655 F       1  UNL1       -0.1659
     39 F         144.7718  143.9794  162.2261 F       1  UNL1       -0.1659
@<TRIPOS>BOND
     1     1     2    2
     2     9     2    1
     3     9    10    1
     4    10    11    1
     5    11    12    1
     6    12    13   ar
     7    13    14   ar
     8    14    15   ar
     9    15    18    1
    10    18    19    1
    11    18    20    1
    12    18    21    1
    13    15    16   ar
    14    16    17   ar
    15     2     3   am
    16     3     4    1
    17     4     5    1
    18     5     6    1
    19     6    22    1
    20    22    23    2
    21    22    24    2
    22    22    25    1
    23    25    26   ar
    24    26    27   ar
    25    27    31    1
    26    31    32   ar
    27    32    33   ar
    28    33    34   ar
    29    34    35   ar
    30    27    28   ar
    31    28    29   ar
    32    29    36    1
    33    36    37    1
    34    36    38    1
    35    36    39    1
    36    29    30   ar
    37     6     7    1
    38     7     8    1
    39    11     9    1
    40    17    12   ar
    41     8     3    1
    42    30    25   ar
    43    35    31   ar
