@<TRIPOS>MOLECULE
*****
 22 24 0 0 0
SMALL
GASTEIGER

@<TRIPOS>ATOM
      1 C         140.2662  140.4815  165.5724 C.2     1  UNL1       -0.0242
      2 C         139.3942  139.4638  164.8987 C.2     1  UNL1       -0.0420
      3 C         138.2202  140.1817  164.3018 C.3     1  UNL1        0.0480
      4 C         138.3666  141.6431  164.6066 C.ar    1  UNL1       -0.0184
      5 C         137.5118  142.8290  164.2706 C.ar    1  UNL1       -0.0040
      6 C         137.9216  144.2002  164.7198 C.ar    1  UNL1       -0.0003
      7 C         139.1861  144.3855  165.5051 C.ar    1  UNL1       -0.0000
      8 C         140.0408  143.1996  165.8411 C.ar    1  UNL1       -0.0006
      9 C         139.6311  141.8284  165.3919 C.ar    1  UNL1       -0.0078
     10 C         141.5482  140.2015  166.2990 C.3     1  UNL1        0.0681
     11 C         141.5339  139.9592  167.7792 C.3     1  UNL1        0.0116
     12 C         145.7862  141.6835  163.5196 C.3     1  UNL1        0.0527
     13 C         144.7926  140.8450  164.2678 C.ar    1  UNL1        0.0660
     14 C         144.8866  139.3667  164.5036 C.ar    1  UNL1        0.0513
     15 S         143.6828  138.9457  165.2931 S.2     1  UNL1       -0.0703
     16 C         142.8447  140.1639  165.5454 C.ar    1  UNL1        0.0915
     17 N         143.5306  141.3377  164.9117 N.ar    1  UNL1       -0.2467
     18 C         139.6511  137.9874  164.8333 C.3     1  UNL1        0.0394
     19 C         140.4919  137.4206  163.7279 C.3     1  UNL1        0.0765
     20 N         140.5630  138.1228  162.4043 N.3     1  UNL1       -0.2700
     21 C         139.4233  138.0137  161.4352 C.3     1  UNL1        0.0897
     22 C         141.7739  138.9340  162.0498 C.3     1  UNL1        0.0897
@<TRIPOS>BOND
     1    12    13    1
     2    13    14   ar
     3    14    15   ar
     4    15    16   ar
     5    16    10    1
     6    10    11    1
     7    10     1    1
     8     1     2    2
     9     2    18    1
    10    18    19    1
    11    19    20    1
    12    20    21    1
    13    20    22    1
    14     2     3    1
    15     3     4    1
    16     4     5   ar
    17     5     6   ar
    18     6     7   ar
    19     7     8   ar
    20     8     9   ar
    21    16    17   ar
    22    17    13   ar
    23     9     1    1
    24     9     4   ar
@<TRIPOS>MOLECULE
*****
 22 24 0 0 0
SMALL
GASTEIGER

@<TRIPOS>ATOM
      1 C         140.4528  139.7921  166.9353 C.2     1  UNL1       -0.0242
      2 C         141.7162  139.2436  166.3410 C.2     1  UNL1       -0.0420
      3 C         142.7826  139.2905  167.3949 C.3     1  UNL1        0.0480
      4 C         142.1783  139.8679  168.6405 C.ar    1  UNL1       -0.0184
      5 C         142.7532  140.1515  169.9966 C.ar    1  UNL1       -0.0040
      6 C         141.8881  140.7450  171.0687 C.ar    1  UNL1       -0.0003
      7 C         140.4483  141.0550  170.7846 C.ar    1  UNL1       -0.0000
      8 C         139.8734  140.7714  169.4285 C.ar    1  UNL1       -0.0006
      9 C         140.7384  140.1779  168.3564 C.ar    1  UNL1       -0.0078
     10 C         139.1352  139.9304  166.2320 C.3     1  UNL1        0.0681
     11 C         138.0770  138.8821  166.4086 C.3     1  UNL1        0.0116
     12 C         139.1943  144.8278  164.2588 C.3     1  UNL1        0.0527
     13 C         138.9029  143.3682  164.4450 C.ar    1  UNL1        0.0660
     14 C         138.0498  142.5184  163.5506 C.ar    1  UNL1        0.0513
     15 S         138.0330  141.1272  164.1111 S.2     1  UNL1       -0.0703
     16 C         138.8757  141.1172  165.3520 C.ar    1  UNL1        0.0915
     17 N         139.4133  142.5022  165.5584 N.ar    1  UNL1       -0.2467
     18 C         141.8837  138.7372  164.9391 C.3     1  UNL1        0.0394
     19 C         141.0438  137.5952  164.4487 C.3     1  UNL1        0.0765
     20 N         140.3696  137.6802  163.1115 N.3     1  UNL1       -0.2700
     21 C         141.1907  137.8381  161.8662 C.3     1  UNL1        0.0897
     22 C         138.8742  137.6072  163.0196 C.3     1  UNL1        0.0897
@<TRIPOS>BOND
     1    12    13    1
     2    13    14   ar
     3    14    15   ar
     4    15    16   ar
     5    16    10    1
     6    10    11    1
     7    10     1    1
     8     1     2    2
     9     2    18    1
    10    18    19    1
    11    19    20    1
    12    20    21    1
    13    20    22    1
    14     2     3    1
    15     3     4    1
    16     4     5   ar
    17     5     6   ar
    18     6     7   ar
    19     7     8   ar
    20     8     9   ar
    21    16    17   ar
    22    17    13   ar
    23     9     1    1
    24     9     4   ar
@<TRIPOS>MOLECULE
*****
 22 24 0 0 0
SMALL
GASTEIGER

@<TRIPOS>ATOM
      1 C         140.2016  139.5866  166.7055 C.2     1  UNL1       -0.0242
      2 C         141.4589  139.1022  166.0462 C.2     1  UNL1       -0.0420
      3 C         142.6031  139.3671  166.9793 C.3     1  UNL1        0.0480
      4 C         142.0530  140.0152  168.2152 C.ar    1  UNL1       -0.0184
      5 C         142.7119  140.4993  169.4728 C.ar    1  UNL1       -0.0040
      6 C         141.8865  141.1190  170.5611 C.ar    1  UNL1       -0.0003
      7 C         140.4022  141.2546  170.3919 C.ar    1  UNL1       -0.0000
      8 C         139.7434  140.7705  169.1343 C.ar    1  UNL1       -0.0006
      9 C         140.5688  140.1508  168.0460 C.ar    1  UNL1       -0.0078
     10 C         138.8197  139.5186  166.1260 C.3     1  UNL1        0.0681
     11 C         137.8117  138.5676  166.6999 C.3     1  UNL1        0.0116
     12 C         137.7351  143.7897  163.2169 C.3     1  UNL1        0.0527
     13 C         137.9473  142.3650  163.6355 C.ar    1  UNL1        0.0660
     14 C         137.7937  141.1567  162.7601 C.ar    1  UNL1        0.0513
     15 S         138.1018  139.9434  163.5865 S.2     1  UNL1       -0.0703
     16 C         138.4458  140.4019  164.9726 C.ar    1  UNL1        0.0915
     17 N         138.3503  141.8985  165.0029 N.ar    1  UNL1       -0.2467
     18 C         141.5551  138.4649  164.6918 C.3     1  UNL1        0.0394
     19 C         142.1443  139.2292  163.5434 C.3     1  UNL1        0.0765
     20 N         143.5486  138.9483  163.0973 N.3     1  UNL1       -0.2700
     21 C         144.7073  139.4607  163.9005 C.3     1  UNL1        0.0897
     22 C         143.7943  138.1552  161.8482 C.3     1  UNL1        0.0897
@<TRIPOS>BOND
     1    12    13    1
     2    13    14   ar
     3    14    15   ar
     4    15    16   ar
     5    16    10    1
     6    10    11    1
     7    10     1    1
     8     1     2    2
     9     2    18    1
    10    18    19    1
    11    19    20    1
    12    20    21    1
    13    20    22    1
    14     2     3    1
    15     3     4    1
    16     4     5   ar
    17     5     6   ar
    18     6     7   ar
    19     7     8   ar
    20     8     9   ar
    21    16    17   ar
    22    17    13   ar
    23     9     1    1
    24     9     4   ar
@<TRIPOS>MOLECULE
*****
 22 24 0 0 0
SMALL
GASTEIGER

@<TRIPOS>ATOM
      1 C         139.3272  140.8961  165.9226 C.2     1  UNL1       -0.0242
      2 C         140.2576  141.3550  167.0059 C.2     1  UNL1       -0.0420
      3 C         140.3927  142.8452  166.9003 C.3     1  UNL1        0.0480
      4 C         139.5458  143.3072  165.7517 C.ar    1  UNL1       -0.0184
      5 C         139.2892  144.6691  165.1779 C.ar    1  UNL1       -0.0040
      6 C         138.3741  144.8264  163.9999 C.ar    1  UNL1       -0.0003
      7 C         137.7155  143.6217  163.3956 C.ar    1  UNL1       -0.0000
      8 C         137.9721  142.2598  163.9694 C.ar    1  UNL1       -0.0006
      9 C         138.8873  142.1025  165.1474 C.ar    1  UNL1       -0.0078
     10 C         138.9099  139.4793  165.6604 C.3     1  UNL1        0.0681
     11 C         138.0201  138.7668  166.6354 C.3     1  UNL1        0.0116
     12 C         139.4273  137.9762  160.6251 C.3     1  UNL1        0.0527
     13 C         139.6203  138.0841  162.1087 C.ar    1  UNL1        0.0660
     14 C         140.5990  137.2982  162.9300 C.ar    1  UNL1        0.0513
     15 S         140.4521  137.7252  164.3603 S.2     1  UNL1       -0.0703
     16 C         139.3825  138.7750  164.4231 C.ar    1  UNL1        0.0915
     17 N         138.8684  138.9968  163.0316 N.ar    1  UNL1       -0.2467
     18 C         140.9341  140.4779  168.0173 C.3     1  UNL1        0.0394
     19 C         142.4226  140.5434  168.1909 C.3     1  UNL1        0.0765
     20 N         143.0066  140.9368  169.5153 N.3     1  UNL1       -0.2700
     21 C         143.6869  142.2647  169.6703 C.3     1  UNL1        0.0897
     22 C         142.9105  140.0024  170.6847 C.3     1  UNL1        0.0897
@<TRIPOS>BOND
     1    12    13    1
     2    13    14   ar
     3    14    15   ar
     4    15    16   ar
     5    16    10    1
     6    10    11    1
     7    10     1    1
     8     1     2    2
     9     2    18    1
    10    18    19    1
    11    19    20    1
    12    20    21    1
    13    20    22    1
    14     2     3    1
    15     3     4    1
    16     4     5   ar
    17     5     6   ar
    18     6     7   ar
    19     7     8   ar
    20     8     9   ar
    21    16    17   ar
    22    17    13   ar
    23     9     1    1
    24     9     4   ar
@<TRIPOS>MOLECULE
*****
 22 24 0 0 0
SMALL
GASTEIGER

@<TRIPOS>ATOM
      1 C         139.8735  140.7710  165.6574 C.2     1  UNL1       -0.0242
      2 C         139.0764  139.5008  165.6223 C.2     1  UNL1       -0.0420
      3 C         138.6944  139.1542  167.0308 C.3     1  UNL1        0.0480
      4 C         139.2555  140.2102  167.9364 C.ar    1  UNL1       -0.0184
      5 C         139.1969  140.3910  169.4243 C.ar    1  UNL1       -0.0040
      6 C         139.8671  141.5710  170.0634 C.ar    1  UNL1       -0.0003
      7 C         140.5958  142.5702  169.2145 C.ar    1  UNL1       -0.0000
      8 C         140.6543  142.3895  167.7267 C.ar    1  UNL1       -0.0006
      9 C         139.9842  141.2095  167.0876 C.ar    1  UNL1       -0.0078
     10 C         140.4574  141.4786  164.4706 C.3     1  UNL1        0.0681
     11 C         141.7293  140.9803  163.8513 C.3     1  UNL1        0.0116
     12 C         139.5783  146.0534  161.9846 C.3     1  UNL1        0.0527
     13 C         139.3652  144.7874  162.7604 C.ar    1  UNL1        0.0660
     14 C         138.0554  144.2936  163.2994 C.ar    1  UNL1        0.0513
     15 S         138.3050  142.9940  164.0056 S.2     1  UNL1       -0.0703
     16 C         139.7692  142.6847  163.9031 C.ar    1  UNL1        0.0915
     17 N         140.4244  143.7930  163.1336 N.ar    1  UNL1       -0.2467
     18 C         138.7232  138.7152  164.3942 C.3     1  UNL1        0.0394
     19 C         139.7047  137.7354  163.8227 C.3     1  UNL1        0.0765
     20 N         140.1443  137.8609  162.3941 N.3     1  UNL1       -0.2700
     21 C         141.5964  137.7292  162.0419 C.3     1  UNL1        0.0897
     22 C         139.1318  138.1180  161.3177 C.3     1  UNL1        0.0897
@<TRIPOS>BOND
     1    12    13    1
     2    13    14   ar
     3    14    15   ar
     4    15    16   ar
     5    16    10    1
     6    10    11    1
     7    10     1    1
     8     1     2    2
     9     2    18    1
    10    18    19    1
    11    19    20    1
    12    20    21    1
    13    20    22    1
    14     2     3    1
    15     3     4    1
    16     4     5   ar
    17     5     6   ar
    18     6     7   ar
    19     7     8   ar
    20     8     9   ar
    21    16    17   ar
    22    17    13   ar
    23     9     1    1
    24     9     4   ar
@<TRIPOS>MOLECULE
*****
 22 24 0 0 0
SMALL
GASTEIGER

@<TRIPOS>ATOM
      1 C         141.7031  139.5847  166.6706 C.2     1  UNL1       -0.0242
      2 C         140.3883  139.4031  165.9717 C.2     1  UNL1       -0.0420
      3 C         139.2956  139.6984  166.9560 C.3     1  UNL1        0.0480
      4 C         139.9350  140.0625  168.2631 C.ar    1  UNL1       -0.0184
      5 C         139.3546  140.4489  169.5911 C.ar    1  UNL1       -0.0040
      6 C         140.2622  140.7651  170.7428 C.ar    1  UNL1       -0.0003
      7 C         141.7501  140.6949  170.5664 C.ar    1  UNL1       -0.0000
      8 C         142.3305  140.3084  169.2384 C.ar    1  UNL1       -0.0006
      9 C         141.4230  139.9922  168.0867 C.ar    1  UNL1       -0.0078
     10 C         143.0598  139.3925  166.0604 C.3     1  UNL1        0.0681
     11 C         143.8191  138.1222  166.3049 C.3     1  UNL1        0.0116
     12 C         144.0317  144.0885  163.8503 C.3     1  UNL1        0.0527
     13 C         144.1042  142.6292  164.1898 C.ar    1  UNL1        0.0660
     14 C         145.0498  141.6305  163.5912 C.ar    1  UNL1        0.0513
     15 S         144.7737  140.2966  164.2190 S.2     1  UNL1       -0.0703
     16 C         143.6574  140.4708  165.2057 C.ar    1  UNL1        0.0915
     17 N         143.2436  141.9124  165.1877 N.ar    1  UNL1       -0.2467
     18 C         140.1994  138.9974  164.5400 C.3     1  UNL1        0.0394
     19 C         138.8572  138.5253  164.0651 C.3     1  UNL1        0.0765
     20 N         138.1210  139.2968  163.0102 N.3     1  UNL1       -0.2700
     21 C         137.7815  138.6437  161.7031 C.3     1  UNL1        0.0897
     22 C         137.7244  140.7212  163.2622 C.3     1  UNL1        0.0897
@<TRIPOS>BOND
     1    12    13    1
     2    13    14   ar
     3    14    15   ar
     4    15    16   ar
     5    16    10    1
     6    10    11    1
     7    10     1    1
     8     1     2    2
     9     2    18    1
    10    18    19    1
    11    19    20    1
    12    20    21    1
    13    20    22    1
    14     2     3    1
    15     3     4    1
    16     4     5   ar
    17     5     6   ar
    18     6     7   ar
    19     7     8   ar
    20     8     9   ar
    21    16    17   ar
    22    17    13   ar
    23     9     1    1
    24     9     4   ar
@<TRIPOS>MOLECULE
*****
 22 24 0 0 0
SMALL
GASTEIGER

@<TRIPOS>ATOM
      1 C         142.9208  141.4039  166.2847 C.2     1  UNL1       -0.0242
      2 C         142.8820  140.0247  165.6962 C.2     1  UNL1       -0.0420
      3 C         142.7166  139.0456  166.8204 C.3     1  UNL1        0.0480
      4 C         142.6531  139.8196  168.1037 C.ar    1  UNL1       -0.0184
      5 C         142.4967  139.3855  169.5310 C.ar    1  UNL1       -0.0040
      6 C         142.4665  140.4090  170.6271 C.ar    1  UNL1       -0.0003
      7 C         142.5927  141.8666  170.2960 C.ar    1  UNL1       -0.0000
      8 C         142.7491  142.3006  168.8687 C.ar    1  UNL1       -0.0006
      9 C         142.7793  141.2771  167.7726 C.ar    1  UNL1       -0.0078
     10 C         143.0741  142.6849  165.5196 C.3     1  UNL1        0.0681
     11 C         144.4388  143.2646  165.2931 C.3     1  UNL1        0.0116
     12 C         138.0755  144.2089  164.7623 C.3     1  UNL1        0.0527
     13 C         139.5649  144.0869  164.6328 C.ar    1  UNL1        0.0660
     14 C         140.4314  144.8447  163.6711 C.ar    1  UNL1        0.0513
     15 S         141.8513  144.4118  163.8862 S.2     1  UNL1       -0.0703
     16 C         141.8625  143.3864  164.9809 C.ar    1  UNL1        0.0915
     17 N         140.4494  143.1856  165.4423 N.ar    1  UNL1       -0.2467
     18 C         142.9898  139.6844  164.2393 C.3     1  UNL1        0.0394
     19 C         144.3231  139.7345  163.5540 C.3     1  UNL1        0.0765
     20 N         144.4316  140.2871  162.1637 N.3     1  UNL1       -0.2700
     21 C         144.8831  141.7018  161.9520 C.3     1  UNL1        0.0897
     22 C         144.0885  139.4250  160.9852 C.3     1  UNL1        0.0897
@<TRIPOS>BOND
     1    12    13    1
     2    13    14   ar
     3    14    15   ar
     4    15    16   ar
     5    16    10    1
     6    10    11    1
     7    10     1    1
     8     1     2    2
     9     2    18    1
    10    18    19    1
    11    19    20    1
    12    20    21    1
    13    20    22    1
    14     2     3    1
    15     3     4    1
    16     4     5   ar
    17     5     6   ar
    18     6     7   ar
    19     7     8   ar
    20     8     9   ar
    21    16    17   ar
    22    17    13   ar
    23     9     1    1
    24     9     4   ar
@<TRIPOS>MOLECULE
*****
 22 24 0 0 0
SMALL
GASTEIGER

@<TRIPOS>ATOM
      1 C         142.2685  140.5403  165.4441 C.2     1  UNL1       -0.0242
      2 C         143.2067  139.6080  164.7367 C.2     1  UNL1       -0.0420
      3 C         142.4607  138.3430  164.4316 C.3     1  UNL1        0.0480
      4 C         141.0613  138.4935  164.9505 C.ar    1  UNL1       -0.0184
      5 C         139.8800  137.5693  164.9340 C.ar    1  UNL1       -0.0040
      6 C         138.5798  138.0032  165.5433 C.ar    1  UNL1       -0.0003
      7 C         138.4610  139.3613  166.1691 C.ar    1  UNL1       -0.0000
      8 C         139.6424  140.2854  166.1856 C.ar    1  UNL1       -0.0006
      9 C         140.9425  139.8515  165.5763 C.ar    1  UNL1       -0.0078
     10 C         142.5982  141.9194  165.9336 C.3     1  UNL1        0.0681
     11 C         142.9829  142.1344  167.3673 C.3     1  UNL1        0.0116
     12 C         140.7994  145.6290  162.6344 C.3     1  UNL1        0.0527
     13 C         141.7165  144.7886  163.4727 C.ar    1  UNL1        0.0660
     14 C         143.2012  144.9610  163.5989 C.ar    1  UNL1        0.0513
     15 S         143.7122  143.9072  164.5361 S.2     1  UNL1       -0.0703
     16 C         142.5433  143.0835  164.9891 C.ar    1  UNL1        0.0915
     17 N         141.3099  143.6282  164.3319 N.ar    1  UNL1       -0.2467
     18 C         144.6395  139.8911  164.3944 C.3     1  UNL1        0.0394
     19 C         144.9808  140.5811  163.1071 C.3     1  UNL1        0.0765
     20 N         144.0660  140.4582  161.9247 N.3     1  UNL1       -0.2700
     21 C         143.1252  141.5761  161.5850 C.3     1  UNL1        0.0897
     22 C         144.0919  139.2175  161.0822 C.3     1  UNL1        0.0897
@<TRIPOS>BOND
     1    12    13    1
     2    13    14   ar
     3    14    15   ar
     4    15    16   ar
     5    16    10    1
     6    10    11    1
     7    10     1    1
     8     1     2    2
     9     2    18    1
    10    18    19    1
    11    19    20    1
    12    20    21    1
    13    20    22    1
    14     2     3    1
    15     3     4    1
    16     4     5   ar
    17     5     6   ar
    18     6     7   ar
    19     7     8   ar
    20     8     9   ar
    21    16    17   ar
    22    17    13   ar
    23     9     1    1
    24     9     4   ar
@<TRIPOS>MOLECULE
*****
 22 24 0 0 0
SMALL
GASTEIGER

@<TRIPOS>ATOM
      1 C         140.2962  142.0577  165.8731 C.2     1  UNL1       -0.0242
      2 C         139.8867  140.7148  165.3449 C.2     1  UNL1       -0.0420
      3 C         139.5370  139.8435  166.5147 C.3     1  UNL1        0.0480
      4 C         139.7304  140.6479  167.7660 C.ar    1  UNL1       -0.0184
      5 C         139.5398  140.3111  169.2152 C.ar    1  UNL1       -0.0040
      6 C         139.8184  141.3427  170.2678 C.ar    1  UNL1       -0.0003
      7 C         140.2876  142.7112  169.8713 C.ar    1  UNL1       -0.0000
      8 C         140.4782  143.0480  168.4221 C.ar    1  UNL1       -0.0006
      9 C         140.1995  142.0163  167.3694 C.ar    1  UNL1       -0.0078
     10 C         140.7267  143.2352  165.0496 C.3     1  UNL1        0.0681
     11 C         139.7770  144.3715  164.8118 C.3     1  UNL1        0.0116
     12 C         145.6635  141.9059  163.7295 C.3     1  UNL1        0.0527
     13 C         144.3762  142.6653  163.8571 C.ar    1  UNL1        0.0660
     14 C         144.0860  144.0139  163.2681 C.ar    1  UNL1        0.0513
     15 S         142.6836  144.3915  163.6430 S.2     1  UNL1       -0.0703
     16 C         142.1071  143.2763  164.4639 C.ar    1  UNL1        0.0915
     17 N         143.1531  142.2094  164.5962 N.ar    1  UNL1       -0.2467
     18 C         139.8359  140.3137  163.9004 C.3     1  UNL1        0.0394
     19 C         141.0504  139.7310  163.2406 C.3     1  UNL1        0.0765
     20 N         141.6875  138.4939  163.8009 N.3     1  UNL1       -0.2700
     21 C         141.0792  137.1494  163.5320 C.3     1  UNL1        0.0897
     22 C         142.9329  138.6014  164.6299 C.3     1  UNL1        0.0897
@<TRIPOS>BOND
     1    12    13    1
     2    13    14   ar
     3    14    15   ar
     4    15    16   ar
     5    16    10    1
     6    10    11    1
     7    10     1    1
     8     1     2    2
     9     2    18    1
    10    18    19    1
    11    19    20    1
    12    20    21    1
    13    20    22    1
    14     2     3    1
    15     3     4    1
    16     4     5   ar
    17     5     6   ar
    18     6     7   ar
    19     7     8   ar
    20     8     9   ar
    21    16    17   ar
    22    17    13   ar
    23     9     1    1
    24     9     4   ar
