@<TRIPOS>MOLECULE
*****
 36 39 0 0 0
SMALL
GASTEIGER

@<TRIPOS>ATOM
      1 C         139.5665  139.8666  167.9978 C.ar    1  UNL1        0.1345
      2 C         140.6637  140.5044  167.1982 C.ar    1  UNL1        0.0489
      3 C         141.7145  141.3239  167.8870 C.ar    1  UNL1        0.0533
      4 C         141.6681  141.5055  169.3752 C.ar    1  UNL1        0.0854
      5 C         140.5709  140.8676  170.1748 C.ar    1  UNL1        0.1060
      6 N         139.5201  140.0482  169.4861 N.ar    1  UNL1       -0.2288
      7 C         142.7189  142.3249  170.0639 C.2     1  UNL1        0.2455
      8 N         142.4659  142.8659  171.4399 N.am    1  UNL1       -0.3252
      9 O         144.0228  142.6033  169.3766 O.2     1  UNL1       -0.2703
     10 H         141.6101  142.6832  171.8910 H       1  UNL1        0.1453
     11 H         143.1556  143.4037  171.8919 H       1  UNL1        0.1453
     12 N         138.5157  139.0472  167.3091 N.pl3   1  UNL1       -0.2821
     13 H         137.8527  138.5498  167.8404 H       1  UNL1        0.1551
     14 C         137.5091  141.3043  162.7383 C.3     1  UNL1        0.0538
     15 C         137.9717  140.1142  163.5255 C.ar    1  UNL1        0.0799
     16 C         138.3935  138.8626  162.8146 C.ar    1  UNL1        0.1137
     17 N         138.8561  137.6725  163.6018 N.ar    1  UNL1       -0.2382
     18 C         138.8968  137.7340  165.0999 C.ar    1  UNL1        0.1332
     19 C         138.4749  138.9856  165.8109 C.ar    1  UNL1        0.1522
     20 N         138.0124  140.1757  165.0236 N.ar    1  UNL1       -0.2317
     21 N         142.8118  141.9617  167.0875 N.pl3   1  UNL1       -0.3337
     22 H         143.7218  142.0194  167.4588 H       1  UNL1        0.1468
     23 C         142.5225  142.5117  165.7222 C.3     1  UNL1        0.0724
     24 C         143.4931  142.2851  164.6013 C.3     1  UNL1        0.0410
     25 C         143.2038  142.8352  163.2360 C.3     1  UNL1        0.0939
     26 N         141.9440  143.6118  162.9918 N.pl3   1  UNL1       -0.2931
     27 C         140.9733  143.8383  164.1128 C.3     1  UNL1        0.0939
     28 C         141.2626  143.2883  165.4780 C.3     1  UNL1        0.0410
     29 C         141.6547  144.1618  161.6266 C.ar    1  UNL1        0.1317
     30 C         140.4826  145.0744  161.4186 C.ar    1  UNL1        0.0350
     31 C         140.1932  145.6244  160.0534 C.ar    1  UNL1        0.0147
     32 C         141.0760  145.2618  158.8962 C.ar    1  UNL1        0.0877
     33 C         142.2482  144.3491  159.1042 C.ar    1  UNL1        0.1105
     34 N         142.5374  143.7991  160.4694 N.ar    1  UNL1       -0.2285
     35 C         140.7867  145.8118  157.5310 C.1     1  UNL1        0.1020
     36 N         140.4975  146.3619  156.1657 N.1     1  UNL1       -0.1908
@<TRIPOS>BOND
     1    14    15    1
     2    15    16   ar
     3    16    17   ar
     4    17    18   ar
     5    18    19   ar
     6    19    12    1
     7    12     1    1
     8     1     2   ar
     9     2     3   ar
    10     3    21    1
    11    21    23    1
    12    23    24    1
    13    24    25    1
    14    25    26    1
    15    26    29    1
    16    29    30   ar
    17    30    31   ar
    18    31    32   ar
    19    32    35    1
    20    35    36    3
    21    32    33   ar
    22    33    34   ar
    23    26    27    1
    24    27    28    1
    25     3     4   ar
    26     4     7    1
    27     7     8   am
    28     7     9    2
    29     4     5   ar
    30     5     6   ar
    31    19    20   ar
    32    20    15   ar
    33     6     1   ar
    34    28    23    1
    35    34    29   ar
    36    12    13    1
    37    21    22    1
    38     8    10    1
    39     8    11    1
@<TRIPOS>MOLECULE
*****
 36 39 0 0 0
SMALL
GASTEIGER

@<TRIPOS>ATOM
      1 C         142.8814  139.0276  167.5730 C.ar    1  UNL1        0.1345
      2 C         141.7403  139.8434  167.0414 C.ar    1  UNL1        0.0489
      3 C         140.7826  140.5012  167.9901 C.ar    1  UNL1        0.0533
      4 C         140.9659  140.3433  169.4705 C.ar    1  UNL1        0.0854
      5 C         142.1069  139.5276  170.0021 C.ar    1  UNL1        0.1060
      6 N         143.0647  138.8698  169.0534 N.ar    1  UNL1       -0.2288
      7 C         140.0082  141.0011  170.4191 C.2     1  UNL1        0.2455
      8 N         140.5127  141.9875  171.4304 N.am    1  UNL1       -0.3252
      9 O         138.5460  140.6725  170.3567 O.2     1  UNL1       -0.2703
     10 H         141.4724  142.2032  171.4714 H       1  UNL1        0.1453
     11 H         139.8841  142.4193  172.0530 H       1  UNL1        0.1453
     12 N         143.8391  138.3698  166.6243 N.pl3   1  UNL1       -0.2821
     13 H         144.4863  137.7076  166.9587 H       1  UNL1        0.1551
     14 C         141.7254  137.8360  161.9076 C.3     1  UNL1        0.0538
     15 C         142.7538  138.4541  162.8079 C.ar    1  UNL1        0.0799
     16 C         143.7536  139.4232  162.2502 C.ar    1  UNL1        0.1137
     17 N         144.7820  140.0412  163.1505 N.ar    1  UNL1       -0.2382
     18 C         144.8105  139.6901  164.6085 C.ar    1  UNL1        0.1332
     19 C         143.8106  138.7210  165.1662 C.ar    1  UNL1        0.1522
     20 N         142.7823  138.1030  164.2659 N.ar    1  UNL1       -0.2317
     21 N         139.6416  141.3169  167.4585 N.pl3   1  UNL1       -0.3337
     22 H         138.8328  141.4467  168.0046 H       1  UNL1        0.1468
     23 C         139.7328  141.9348  166.0947 C.3     1  UNL1        0.0724
     24 C         138.9728  141.3369  164.9480 C.3     1  UNL1        0.0410
     25 C         139.0640  141.9548  163.5842 C.3     1  UNL1        0.0939
     26 N         139.9153  143.1706  163.3671 N.pl3   1  UNL1       -0.2931
     27 C         140.6754  143.7685  164.5139 C.3     1  UNL1        0.0939
     28 C         140.5841  143.1506  165.8776 C.3     1  UNL1        0.0410
     29 C         140.0066  143.7886  162.0034 C.ar    1  UNL1        0.1317
     30 C         140.1587  145.2741  161.8618 C.ar    1  UNL1        0.0350
     31 C         140.2500  145.8921  160.4980 C.ar    1  UNL1        0.0147
     32 C         140.1892  145.0245  159.2759 C.ar    1  UNL1        0.0877
     33 C         140.0371  143.5389  159.4175 C.ar    1  UNL1        0.1105
     34 N         139.9458  142.9210  160.7813 N.ar    1  UNL1       -0.2285
     35 C         140.2804  145.6424  157.9121 C.1     1  UNL1        0.1020
     36 N         140.3717  146.2603  156.5483 N.1     1  UNL1       -0.1908
@<TRIPOS>BOND
     1    14    15    1
     2    15    16   ar
     3    16    17   ar
     4    17    18   ar
     5    18    19   ar
     6    19    12    1
     7    12     1    1
     8     1     2   ar
     9     2     3   ar
    10     3    21    1
    11    21    23    1
    12    23    24    1
    13    24    25    1
    14    25    26    1
    15    26    29    1
    16    29    30   ar
    17    30    31   ar
    18    31    32   ar
    19    32    35    1
    20    35    36    3
    21    32    33   ar
    22    33    34   ar
    23    26    27    1
    24    27    28    1
    25     3     4   ar
    26     4     7    1
    27     7     8   am
    28     7     9    2
    29     4     5   ar
    30     5     6   ar
    31    19    20   ar
    32    20    15   ar
    33     6     1   ar
    34    28    23    1
    35    34    29   ar
    36    12    13    1
    37    21    22    1
    38     8    10    1
    39     8    11    1
@<TRIPOS>MOLECULE
*****
 36 39 0 0 0
SMALL
GASTEIGER

@<TRIPOS>ATOM
      1 C         139.4850  139.9115  167.8633 C.ar    1  UNL1        0.1345
      2 C         140.3799  140.8468  167.1054 C.ar    1  UNL1        0.0489
      3 C         141.4351  141.6279  167.8310 C.ar    1  UNL1        0.0533
      4 C         141.5955  141.4736  169.3143 C.ar    1  UNL1        0.0854
      5 C         140.7006  140.5382  170.0722 C.ar    1  UNL1        0.1060
      6 N         139.6454  139.7572  169.3467 N.ar    1  UNL1       -0.2288
      7 C         142.6507  142.2546  170.0398 C.2     1  UNL1        0.2455
      8 N         142.4089  142.7147  171.4470 N.am    1  UNL1       -0.3252
      9 O         143.9478  142.5757  169.3583 O.2     1  UNL1       -0.2703
     10 H         141.5576  142.5039  171.8943 H       1  UNL1        0.1453
     11 H         143.1015  143.2273  171.9232 H       1  UNL1        0.1453
     12 N         138.4298  139.1304  167.1378 N.pl3   1  UNL1       -0.2821
     13 H         137.7082  138.6906  167.6430 H       1  UNL1        0.1551
     14 C         137.5857  141.1964  162.4453 C.3     1  UNL1        0.0538
     15 C         138.0518  140.0525  163.2963 C.ar    1  UNL1        0.0799
     16 C         138.5618  138.7976  162.6521 C.ar    1  UNL1        0.1137
     17 N         139.0279  137.6536  163.5030 N.ar    1  UNL1       -0.2382
     18 C         138.9839  137.7646  164.9983 C.ar    1  UNL1        0.1332
     19 C         138.4738  139.0194  165.6425 C.ar    1  UNL1        0.1522
     20 N         138.0078  140.1634  164.7915 N.ar    1  UNL1       -0.2317
     21 N         142.3300  142.5632  167.0731 N.pl3   1  UNL1       -0.3337
     22 H         142.7124  143.3511  167.5228 H       1  UNL1        0.1468
     23 C         142.6422  142.2980  165.6301 C.3     1  UNL1        0.0724
     24 C         143.6123  141.2158  165.2592 C.3     1  UNL1        0.0410
     25 C         143.9245  140.9507  163.8161 C.3     1  UNL1        0.0939
     26 N         143.2665  141.7678  162.7440 N.pl3   1  UNL1       -0.2931
     27 C         142.2963  142.8500  163.1150 C.3     1  UNL1        0.0939
     28 C         141.9842  143.1151  164.5580 C.3     1  UNL1        0.0410
     29 C         143.5786  141.5026  161.3010 C.ar    1  UNL1        0.1317
     30 C         143.3504  140.1375  160.7229 C.ar    1  UNL1        0.0350
     31 C         143.6625  139.8724  159.2799 C.ar    1  UNL1        0.0147
     32 C         144.2029  140.9724  158.4150 C.ar    1  UNL1        0.0877
     33 C         144.4311  142.3376  158.9932 C.ar    1  UNL1        0.1105
     34 N         144.1190  142.6027  160.4362 N.ar    1  UNL1       -0.2285
     35 C         144.5150  140.7073  156.9720 C.1     1  UNL1        0.1020
     36 N         144.8272  140.4421  155.5290 N.1     1  UNL1       -0.1908
@<TRIPOS>BOND
     1    14    15    1
     2    15    16   ar
     3    16    17   ar
     4    17    18   ar
     5    18    19   ar
     6    19    12    1
     7    12     1    1
     8     1     2   ar
     9     2     3   ar
    10     3    21    1
    11    21    23    1
    12    23    24    1
    13    24    25    1
    14    25    26    1
    15    26    29    1
    16    29    30   ar
    17    30    31   ar
    18    31    32   ar
    19    32    35    1
    20    35    36    3
    21    32    33   ar
    22    33    34   ar
    23    26    27    1
    24    27    28    1
    25     3     4   ar
    26     4     7    1
    27     7     8   am
    28     7     9    2
    29     4     5   ar
    30     5     6   ar
    31    19    20   ar
    32    20    15   ar
    33     6     1   ar
    34    28    23    1
    35    34    29   ar
    36    12    13    1
    37    21    22    1
    38     8    10    1
    39     8    11    1
@<TRIPOS>MOLECULE
*****
 36 39 0 0 0
SMALL
GASTEIGER

@<TRIPOS>ATOM
      1 C         140.6741  142.6911  158.5158 C.ar    1  UNL1        0.1345
      2 C         141.6911  142.7392  159.6172 C.ar    1  UNL1        0.0489
      3 C         143.1338  142.4568  159.3188 C.ar    1  UNL1        0.0533
      4 C         143.5594  142.1262  157.9190 C.ar    1  UNL1        0.0854
      5 C         142.5423  142.0781  156.8175 C.ar    1  UNL1        0.1060
      6 N         141.0997  142.3605  157.1159 N.ar    1  UNL1       -0.2288
      7 C         145.0020  141.8438  157.6206 C.2     1  UNL1        0.2455
      8 N         145.3889  140.5732  156.9236 N.am    1  UNL1       -0.3252
      9 O         146.0577  142.8320  158.0192 O.2     1  UNL1       -0.2703
     10 H         144.6960  139.9246  156.6620 H       1  UNL1        0.1453
     11 H         146.3358  140.3878  156.7278 H       1  UNL1        0.1453
     12 N         139.2315  142.9735  158.8141 N.pl3   1  UNL1       -0.2821
     13 H         138.6738  143.4405  158.1506 H       1  UNL1        0.1551
     14 C         137.7579  144.0937  163.6694 C.3     1  UNL1        0.0538
     15 C         137.9016  143.1045  162.5510 C.ar    1  UNL1        0.0799
     16 C         137.4523  141.6862  162.7419 C.ar    1  UNL1        0.1137
     17 N         137.5960  140.6970  161.6235 N.ar    1  UNL1       -0.2382
     18 C         138.1891  141.1260  160.3143 C.ar    1  UNL1        0.1332
     19 C         138.6384  142.5443  160.1234 C.ar    1  UNL1        0.1522
     20 N         138.4946  143.5336  161.2418 N.ar    1  UNL1       -0.2317
     21 N         144.1509  142.5050  160.4203 N.pl3   1  UNL1       -0.3337
     22 H         145.1098  142.5544  160.2030 H       1  UNL1        0.1468
     23 C         143.7068  142.4779  161.8528 C.3     1  UNL1        0.0724
     24 C         143.2801  141.1846  162.4814 C.3     1  UNL1        0.0410
     25 C         142.8361  141.1575  163.9140 C.3     1  UNL1        0.0939
     26 N         142.8188  142.4237  164.7179 N.pl3   1  UNL1       -0.2931
     27 C         143.2455  143.7171  164.0892 C.3     1  UNL1        0.0939
     28 C         143.6895  143.7442  162.6567 C.3     1  UNL1        0.0410
     29 C         142.3748  142.3967  166.1504 C.ar    1  UNL1        0.1317
     30 C         140.9156  142.4896  166.4851 C.ar    1  UNL1        0.0350
     31 C         140.4715  142.4625  167.9177 C.ar    1  UNL1        0.0147
     32 C         141.4866  142.3426  169.0154 C.ar    1  UNL1        0.0877
     33 C         142.9459  142.2497  168.6806 C.ar    1  UNL1        0.1105
     34 N         143.3899  142.2768  167.2481 N.ar    1  UNL1       -0.2285
     35 C         141.0426  142.3156  170.4479 C.1     1  UNL1        0.1020
     36 N         140.5986  142.2885  171.8805 N.1     1  UNL1       -0.1908
@<TRIPOS>BOND
     1    14    15    1
     2    15    16   ar
     3    16    17   ar
     4    17    18   ar
     5    18    19   ar
     6    19    12    1
     7    12     1    1
     8     1     2   ar
     9     2     3   ar
    10     3    21    1
    11    21    23    1
    12    23    24    1
    13    24    25    1
    14    25    26    1
    15    26    29    1
    16    29    30   ar
    17    30    31   ar
    18    31    32   ar
    19    32    35    1
    20    35    36    3
    21    32    33   ar
    22    33    34   ar
    23    26    27    1
    24    27    28    1
    25     3     4   ar
    26     4     7    1
    27     7     8   am
    28     7     9    2
    29     4     5   ar
    30     5     6   ar
    31    19    20   ar
    32    20    15   ar
    33     6     1   ar
    34    28    23    1
    35    34    29   ar
    36    12    13    1
    37    21    22    1
    38     8    10    1
    39     8    11    1
@<TRIPOS>MOLECULE
*****
 36 39 0 0 0
SMALL
GASTEIGER

@<TRIPOS>ATOM
      1 C         139.2245  141.8814  158.4909 C.ar    1  UNL1        0.1345
      2 C         139.3911  140.7647  159.4785 C.ar    1  UNL1        0.0489
      3 C         139.6693  139.3719  158.9958 C.ar    1  UNL1        0.0533
      4 C         139.7808  139.0959  157.5257 C.ar    1  UNL1        0.0854
      5 C         139.6142  140.2126  156.5381 C.ar    1  UNL1        0.1060
      6 N         139.3361  141.6053  157.0207 N.ar    1  UNL1       -0.2288
      7 C         140.0590  137.7032  157.0431 C.2     1  UNL1        0.2455
      8 N         139.0032  136.9434  156.2959 N.am    1  UNL1       -0.3252
      9 O         141.3929  137.0701  157.3077 O.2     1  UNL1       -0.2703
     10 H         138.1277  137.3589  156.1222 H       1  UNL1        0.1453
     11 H         139.1858  136.0293  155.9791 H       1  UNL1        0.1453
     12 N         138.9464  143.2741  158.9735 N.pl3   1  UNL1       -0.2821
     13 H         138.2511  143.8169  158.5362 H       1  UNL1        0.1551
     14 C         139.1690  144.8598  163.9168 C.3     1  UNL1        0.0538
     15 C         139.8388  144.6326  162.5940 C.ar    1  UNL1        0.0799
     16 C         141.2897  144.9712  162.4200 C.ar    1  UNL1        0.1137
     17 N         141.9595  144.7440  161.0972 N.ar    1  UNL1       -0.2382
     18 C         141.1784  144.1783  159.9484 C.ar    1  UNL1        0.1332
     19 C         139.7275  143.8398  160.1224 C.ar    1  UNL1        0.1522
     20 N         139.0577  144.0669  161.4452 N.ar    1  UNL1       -0.2317
     21 N         139.8359  138.2552  159.9833 N.pl3   1  UNL1       -0.3337
     22 H         139.8805  137.3231  159.6695 H       1  UNL1        0.1468
     23 C         139.9345  138.5587  161.4491 C.3     1  UNL1        0.0724
     24 C         138.7101  138.4919  162.3129 C.3     1  UNL1        0.0410
     25 C         138.8088  138.7953  163.7786 C.3     1  UNL1        0.0939
     26 N         140.1319  139.1656  164.3804 N.pl3   1  UNL1       -0.2931
     27 C         141.3564  139.2324  163.5165 C.3     1  UNL1        0.0939
     28 C         141.2577  138.9290  162.0509 C.3     1  UNL1        0.0410
     29 C         140.2306  139.4691  165.8460 C.ar    1  UNL1        0.1317
     30 C         138.9881  139.5347  166.6837 C.ar    1  UNL1        0.0350
     31 C         139.0867  139.8382  168.1494 C.ar    1  UNL1        0.0147
     32 C         140.4280  140.0761  168.7774 C.ar    1  UNL1        0.0877
     33 C         141.6706  140.0104  167.9397 C.ar    1  UNL1        0.1105
     34 N         141.5719  139.7070  166.4740 N.ar    1  UNL1       -0.2285
     35 C         140.5267  140.3795  170.2430 C.1     1  UNL1        0.1020
     36 N         140.6255  140.6831  171.7087 N.1     1  UNL1       -0.1908
@<TRIPOS>BOND
     1    14    15    1
     2    15    16   ar
     3    16    17   ar
     4    17    18   ar
     5    18    19   ar
     6    19    12    1
     7    12     1    1
     8     1     2   ar
     9     2     3   ar
    10     3    21    1
    11    21    23    1
    12    23    24    1
    13    24    25    1
    14    25    26    1
    15    26    29    1
    16    29    30   ar
    17    30    31   ar
    18    31    32   ar
    19    32    35    1
    20    35    36    3
    21    32    33   ar
    22    33    34   ar
    23    26    27    1
    24    27    28    1
    25     3     4   ar
    26     4     7    1
    27     7     8   am
    28     7     9    2
    29     4     5   ar
    30     5     6   ar
    31    19    20   ar
    32    20    15   ar
    33     6     1   ar
    34    28    23    1
    35    34    29   ar
    36    12    13    1
    37    21    22    1
    38     8    10    1
    39     8    11    1
@<TRIPOS>MOLECULE
*****
 36 39 0 0 0
SMALL
GASTEIGER

@<TRIPOS>ATOM
      1 C         141.1884  140.0505  157.5640 C.ar    1  UNL1        0.1345
      2 C         140.1037  139.7518  158.5562 C.ar    1  UNL1        0.0489
      3 C         138.6998  140.2104  158.2933 C.ar    1  UNL1        0.0533
      4 C         138.3807  140.9675  157.0384 C.ar    1  UNL1        0.0854
      5 C         139.4654  141.2662  156.0463 C.ar    1  UNL1        0.1060
      6 N         140.8692  140.8077  156.3091 N.ar    1  UNL1       -0.2288
      7 C         136.9769  141.4260  156.7757 C.2     1  UNL1        0.2455
      8 N         136.6939  142.8810  156.5448 N.am    1  UNL1       -0.3252
      9 O         135.8561  140.4297  156.7438 O.2     1  UNL1       -0.2703
     10 H         137.4296  143.5349  156.5657 H       1  UNL1        0.1453
     11 H         135.7725  143.1819  156.3723 H       1  UNL1        0.1453
     12 N         142.5921  139.5920  157.8268 N.pl3   1  UNL1       -0.2821
     13 H         143.2161  139.4618  157.0765 H       1  UNL1        0.1551
     14 C         144.7851  141.2654  162.2303 C.3     1  UNL1        0.0538
     15 C         144.1418  140.1686  161.4346 C.ar    1  UNL1        0.0799
     16 C         143.9519  138.8116  162.0449 C.ar    1  UNL1        0.1137
     17 N         143.3087  137.7147  161.2492 N.ar    1  UNL1       -0.2382
     18 C         142.8554  137.9748  159.8432 C.ar    1  UNL1        0.1332
     19 C         143.0454  139.3318  159.2329 C.ar    1  UNL1        0.1522
     20 N         143.6886  140.4287  160.0286 N.ar    1  UNL1       -0.2317
     21 N         137.6152  139.9117  159.2855 N.pl3   1  UNL1       -0.3337
     22 H         136.7088  139.6895  158.9719 H       1  UNL1        0.1468
     23 C         137.9115  139.9516  160.7554 C.3     1  UNL1        0.0724
     24 C         138.0852  138.6732  161.5205 C.3     1  UNL1        0.0410
     25 C         138.3816  138.7131  162.9904 C.3     1  UNL1        0.0939
     26 N         138.5043  140.0315  163.6952 N.pl3   1  UNL1       -0.2931
     27 C         138.3306  141.3100  162.9301 C.3     1  UNL1        0.0939
     28 C         138.0342  141.2700  161.4602 C.3     1  UNL1        0.0410
     29 C         138.8006  140.0714  165.1651 C.ar    1  UNL1        0.1317
     30 C         138.1294  139.1019  166.0921 C.ar    1  UNL1        0.0350
     31 C         138.4257  139.1418  167.5620 C.ar    1  UNL1        0.0147
     32 C         139.3933  140.1512  168.1049 C.ar    1  UNL1        0.0877
     33 C         140.0645  141.1208  167.1778 C.ar    1  UNL1        0.1105
     34 N         139.7682  141.0809  165.7079 N.ar    1  UNL1       -0.2285
     35 C         139.6896  140.1912  169.5747 C.1     1  UNL1        0.1020
     36 N         139.9860  140.2311  171.0447 N.1     1  UNL1       -0.1908
@<TRIPOS>BOND
     1    14    15    1
     2    15    16   ar
     3    16    17   ar
     4    17    18   ar
     5    18    19   ar
     6    19    12    1
     7    12     1    1
     8     1     2   ar
     9     2     3   ar
    10     3    21    1
    11    21    23    1
    12    23    24    1
    13    24    25    1
    14    25    26    1
    15    26    29    1
    16    29    30   ar
    17    30    31   ar
    18    31    32   ar
    19    32    35    1
    20    35    36    3
    21    32    33   ar
    22    33    34   ar
    23    26    27    1
    24    27    28    1
    25     3     4   ar
    26     4     7    1
    27     7     8   am
    28     7     9    2
    29     4     5   ar
    30     5     6   ar
    31    19    20   ar
    32    20    15   ar
    33     6     1   ar
    34    28    23    1
    35    34    29   ar
    36    12    13    1
    37    21    22    1
    38     8    10    1
    39     8    11    1
@<TRIPOS>MOLECULE
*****
 36 39 0 0 0
SMALL
GASTEIGER

@<TRIPOS>ATOM
      1 C         139.9484  144.0376  158.1711 C.ar    1  UNL1        0.1345
      2 C         139.6930  142.7441  158.8864 C.ar    1  UNL1        0.0489
      3 C         138.7378  141.7429  158.3074 C.ar    1  UNL1        0.0533
      4 C         138.0380  142.0352  157.0133 C.ar    1  UNL1        0.0854
      5 C         138.2934  143.3287  156.2981 C.ar    1  UNL1        0.1060
      6 N         139.2486  144.3299  156.8769 N.ar    1  UNL1       -0.2288
      7 C         137.0828  141.0340  156.4345 C.2     1  UNL1        0.2455
      8 N         135.6462  141.4067  156.2168 N.am    1  UNL1       -0.3252
      9 O         137.5641  139.6600  156.0732 O.2     1  UNL1       -0.2703
     10 H         135.3302  142.3085  156.4539 H       1  UNL1        0.1453
     11 H         135.0192  140.7496  155.8369 H       1  UNL1        0.1453
     12 N         140.9036  145.0388  158.7500 N.pl3   1  UNL1       -0.2821
     13 H         141.3666  145.6761  158.1594 H       1  UNL1        0.1551
     14 C         143.9055  143.8839  162.8310 C.3     1  UNL1        0.0538
     15 C         142.6544  144.4917  162.2692 C.ar    1  UNL1        0.0799
     16 C         141.6534  145.1297  163.1861 C.ar    1  UNL1        0.1137
     17 N         140.4024  145.7374  162.6243 N.ar    1  UNL1       -0.2382
     18 C         140.1524  145.7071  161.1456 C.ar    1  UNL1        0.1332
     19 C         141.1535  145.0691  160.2287 C.ar    1  UNL1        0.1522
     20 N         142.4045  144.4614  160.7906 N.ar    1  UNL1       -0.2317
     21 N         138.4824  140.4494  159.0227 N.pl3   1  UNL1       -0.3337
     22 H         138.2273  139.6468  158.5126 H       1  UNL1        0.1468
     23 C         138.6156  140.3786  160.5151 C.3     1  UNL1        0.0724
     24 C         139.7457  139.6087  161.1316 C.3     1  UNL1        0.0410
     25 C         139.8789  139.5379  162.6240 C.3     1  UNL1        0.0939
     26 N         138.8820  140.2371  163.4999 N.pl3   1  UNL1       -0.2931
     27 C         137.7518  141.0070  162.8834 C.3     1  UNL1        0.0939
     28 C         137.6186  141.0778  161.3911 C.3     1  UNL1        0.0410
     29 C         139.0151  140.1664  164.9923 C.ar    1  UNL1        0.1317
     30 C         139.9553  141.0918  165.7061 C.ar    1  UNL1        0.0350
     31 C         140.0886  141.0211  167.1985 C.ar    1  UNL1        0.0147
     32 C         139.2815  140.0249  167.9771 C.ar    1  UNL1        0.0877
     33 C         138.3413  139.0994  167.2633 C.ar    1  UNL1        0.1105
     34 N         138.2081  139.1701  165.7709 N.ar    1  UNL1       -0.2285
     35 C         139.4147  139.9542  169.4695 C.1     1  UNL1        0.1020
     36 N         139.5478  139.8835  170.9620 N.1     1  UNL1       -0.1908
@<TRIPOS>BOND
     1    14    15    1
     2    15    16   ar
     3    16    17   ar
     4    17    18   ar
     5    18    19   ar
     6    19    12    1
     7    12     1    1
     8     1     2   ar
     9     2     3   ar
    10     3    21    1
    11    21    23    1
    12    23    24    1
    13    24    25    1
    14    25    26    1
    15    26    29    1
    16    29    30   ar
    17    30    31   ar
    18    31    32   ar
    19    32    35    1
    20    35    36    3
    21    32    33   ar
    22    33    34   ar
    23    26    27    1
    24    27    28    1
    25     3     4   ar
    26     4     7    1
    27     7     8   am
    28     7     9    2
    29     4     5   ar
    30     5     6   ar
    31    19    20   ar
    32    20    15   ar
    33     6     1   ar
    34    28    23    1
    35    34    29   ar
    36    12    13    1
    37    21    22    1
    38     8    10    1
    39     8    11    1
@<TRIPOS>MOLECULE
*****
 36 39 0 0 0
SMALL
GASTEIGER

@<TRIPOS>ATOM
      1 C         140.2478  142.3244  165.6041 C.ar    1  UNL1        0.1345
      2 C         139.3339  141.7213  164.5789 C.ar    1  UNL1        0.0489
      3 C         138.6478  140.4173  164.8602 C.ar    1  UNL1        0.0533
      4 C         138.8756  139.7165  166.1667 C.ar    1  UNL1        0.0854
      5 C         139.7895  140.3196  167.1919 C.ar    1  UNL1        0.1060
      6 N         140.4756  141.6235  166.9107 N.ar    1  UNL1       -0.2288
      7 C         138.1895  138.4127  166.4479 C.2     1  UNL1        0.2455
      8 N         137.2871  138.2816  167.6390 N.am    1  UNL1       -0.3252
      9 O         138.4059  137.2398  165.5382 O.2     1  UNL1       -0.2703
     10 H         137.1451  139.0514  168.2361 H       1  UNL1        0.1453
     11 H         136.8368  137.4258  167.8236 H       1  UNL1        0.1453
     12 N         140.9339  143.6282  165.3228 N.pl3   1  UNL1       -0.2821
     13 H         140.6139  144.4552  165.7507 H       1  UNL1        0.1551
     14 C         145.5821  141.8320  163.8505 C.3     1  UNL1        0.0538
     15 C         144.4316  142.7741  163.6535 C.ar    1  UNL1        0.0799
     16 C         144.4547  143.7601  162.5234 C.ar    1  UNL1        0.1137
     17 N         143.3041  144.7022  162.3265 N.ar    1  UNL1       -0.2382
     18 C         142.1306  144.6583  163.2596 C.ar    1  UNL1        0.1332
     19 C         142.1075  143.6722  164.3897 C.ar    1  UNL1        0.1522
     20 N         143.2580  142.7301  164.5866 N.ar    1  UNL1       -0.2317
     21 N         137.7340  139.8142  163.8349 N.pl3   1  UNL1       -0.3337
     22 H         136.8018  139.6024  164.0703 H       1  UNL1        0.1468
     23 C         138.2405  139.5339  162.4511 C.3     1  UNL1        0.0724
     24 C         137.6359  140.2399  161.2738 C.3     1  UNL1        0.0410
     25 C         138.1423  139.9596  159.8900 C.3     1  UNL1        0.0939
     26 N         139.2534  138.9732  159.6835 N.pl3   1  UNL1       -0.2931
     27 C         139.8580  138.2672  160.8608 C.3     1  UNL1        0.0939
     28 C         139.3515  138.5475  162.2446 C.3     1  UNL1        0.0410
     29 C         139.7599  138.6929  158.2997 C.ar    1  UNL1        0.1317
     30 C         141.1277  138.1085  158.1058 C.ar    1  UNL1        0.0350
     31 C         141.6342  137.8281  156.7220 C.ar    1  UNL1        0.0147
     32 C         140.7729  138.1322  155.5321 C.ar    1  UNL1        0.0877
     33 C         139.4051  138.7166  155.7261 C.ar    1  UNL1        0.1105
     34 N         138.8986  138.9969  157.1099 N.ar    1  UNL1       -0.2285
     35 C         141.2794  137.8518  154.1484 C.1     1  UNL1        0.1020
     36 N         141.7859  137.5715  152.7645 N.1     1  UNL1       -0.1908
@<TRIPOS>BOND
     1    14    15    1
     2    15    16   ar
     3    16    17   ar
     4    17    18   ar
     5    18    19   ar
     6    19    12    1
     7    12     1    1
     8     1     2   ar
     9     2     3   ar
    10     3    21    1
    11    21    23    1
    12    23    24    1
    13    24    25    1
    14    25    26    1
    15    26    29    1
    16    29    30   ar
    17    30    31   ar
    18    31    32   ar
    19    32    35    1
    20    35    36    3
    21    32    33   ar
    22    33    34   ar
    23    26    27    1
    24    27    28    1
    25     3     4   ar
    26     4     7    1
    27     7     8   am
    28     7     9    2
    29     4     5   ar
    30     5     6   ar
    31    19    20   ar
    32    20    15   ar
    33     6     1   ar
    34    28    23    1
    35    34    29   ar
    36    12    13    1
    37    21    22    1
    38     8    10    1
    39     8    11    1
@<TRIPOS>MOLECULE
*****
 36 39 0 0 0
SMALL
GASTEIGER

@<TRIPOS>ATOM
      1 C         142.6500  139.5377  167.2932 C.ar    1  UNL1        0.1345
      2 C         141.9455  140.7234  166.7036 C.ar    1  UNL1        0.0489
      3 C         141.2295  141.6916  167.5981 C.ar    1  UNL1        0.0533
      4 C         141.2181  141.4741  169.0821 C.ar    1  UNL1        0.0854
      5 C         141.9226  140.2883  169.6718 C.ar    1  UNL1        0.1060
      6 N         142.6385  139.3201  168.7774 N.ar    1  UNL1       -0.2288
      7 C         140.5022  142.4422  169.9766 C.2     1  UNL1        0.2455
      8 N         139.2692  142.0111  170.7142 N.am    1  UNL1       -0.3252
      9 O         141.0192  143.8415  170.1335 O.2     1  UNL1       -0.2703
     10 H         138.9298  141.0927  170.6112 H       1  UNL1        0.1453
     11 H         138.7993  142.6466  171.3012 H       1  UNL1        0.1453
     12 N         143.3659  138.5695  166.3988 N.pl3   1  UNL1       -0.2821
     13 H         144.1647  138.0957  166.7255 H       1  UNL1        0.1551
     14 C         143.9593  139.0225  161.2565 C.3     1  UNL1        0.0538
     15 C         143.1615  138.5496  162.4355 C.ar    1  UNL1        0.0799
     16 C         141.8626  137.8304  162.2222 C.ar    1  UNL1        0.1137
     17 N         141.0648  137.3575  163.4011 N.ar    1  UNL1       -0.2382
     18 C         141.5659  137.6038  164.7933 C.ar    1  UNL1        0.1332
     19 C         142.8647  138.3231  165.0066 C.ar    1  UNL1        0.1522
     20 N         143.6625  138.7960  163.8276 N.ar    1  UNL1       -0.2317
     21 N         140.5250  142.8774  167.0085 N.pl3   1  UNL1       -0.3337
     22 H         140.2096  143.6036  167.5935 H       1  UNL1        0.1468
     23 C         140.3012  142.9566  165.5273 C.3     1  UNL1        0.0724
     24 C         141.2772  143.6946  164.6597 C.3     1  UNL1        0.0410
     25 C         141.0533  143.7738  163.1786 C.3     1  UNL1        0.0939
     26 N         139.8534  143.1151  162.5651 N.pl3   1  UNL1       -0.2931
     27 C         138.8774  142.3771  163.4328 C.3     1  UNL1        0.0939
     28 C         139.1013  142.2979  164.9139 C.3     1  UNL1        0.0410
     29 C         139.6295  143.1943  161.0841 C.ar    1  UNL1        0.1317
     30 C         138.6426  142.2771  160.4247 C.ar    1  UNL1        0.0350
     31 C         138.4187  142.3563  158.9436 C.ar    1  UNL1        0.0147
     32 C         139.1817  143.3527  158.1219 C.ar    1  UNL1        0.0877
     33 C         140.1686  144.2698  158.7814 C.ar    1  UNL1        0.1105
     34 N         140.3925  144.1906  160.2624 N.ar    1  UNL1       -0.2285
     35 C         138.9578  143.4319  156.6409 C.1     1  UNL1        0.1020
     36 N         138.7339  143.5111  155.1597 N.1     1  UNL1       -0.1908
@<TRIPOS>BOND
     1    14    15    1
     2    15    16   ar
     3    16    17   ar
     4    17    18   ar
     5    18    19   ar
     6    19    12    1
     7    12     1    1
     8     1     2   ar
     9     2     3   ar
    10     3    21    1
    11    21    23    1
    12    23    24    1
    13    24    25    1
    14    25    26    1
    15    26    29    1
    16    29    30   ar
    17    30    31   ar
    18    31    32   ar
    19    32    35    1
    20    35    36    3
    21    32    33   ar
    22    33    34   ar
    23    26    27    1
    24    27    28    1
    25     3     4   ar
    26     4     7    1
    27     7     8   am
    28     7     9    2
    29     4     5   ar
    30     5     6   ar
    31    19    20   ar
    32    20    15   ar
    33     6     1   ar
    34    28    23    1
    35    34    29   ar
    36    12    13    1
    37    21    22    1
    38     8    10    1
    39     8    11    1
