@<TRIPOS>MOLECULE
*****
 36 40 0 0 0
SMALL
GASTEIGER

@<TRIPOS>ATOM
      1 C         139.5371  139.8748  165.5366 C.3     1  UNL1        0.2321
      2 N         138.5425  138.7640  165.7008 N.2     1  UNL1       -0.0614
      3 C         138.1101  138.7377  167.1369 C.2     1  UNL1        0.3157
      4 N         137.1235  137.7843  167.7433 N.pl3   1  UNL1       -0.2464
      5 C         138.8373  139.8323  167.8601 C.ar    1  UNL1        0.1094
      6 C         138.8103  140.2799  169.2915 C.ar    1  UNL1        0.1470
      7 F         137.9283  139.5771  170.2806 F       1  UNL1       -0.2039
      8 C         139.6653  141.4302  169.7338 C.ar    1  UNL1        0.0299
      9 C         140.5473  142.1330  168.7447 C.ar    1  UNL1        0.0021
     10 C         140.5742  141.6854  167.3133 C.ar    1  UNL1        0.0008
     11 C         139.7192  140.5351  166.8710 C.ar    1  UNL1        0.0390
     12 H         136.6962  137.0961  167.1838 H       1  UNL1        0.2884
     13 H         136.9033  137.8467  168.7008 H       1  UNL1        0.2884
     14 N         140.8155  138.3142  162.1189 N.ar    1  UNL1       -0.2946
     15 C         140.7886  138.7618  163.5503 C.ar    1  UNL1        0.0786
     16 C         139.5640  139.4271  164.1051 C.ar    1  UNL1        0.0468
     17 C         138.3664  139.6448  163.2286 C.ar    1  UNL1        0.0023
     18 C         138.3934  139.1972  161.7972 C.ar    1  UNL1        0.0342
     19 C         137.1957  139.4148  160.9206 C.3     1  UNL1        0.0360
     20 C         139.6179  138.5319  161.2424 C.ar    1  UNL1        0.2568
     21 O         139.6449  138.0842  159.8109 O.2     1  UNL1       -0.2673
     22 C         143.4020  138.0977  162.0042 C.3     1  UNL1        0.0266
     23 C         142.0401  137.6489  161.5641 C.3     1  UNL1        0.1091
     24 C         140.5372  140.8920  165.0730 C.ar    1  UNL1        0.0297
     25 C         141.9493  140.8389  165.5762 C.ar    1  UNL1        0.0004
     26 C         142.9495  141.8562  165.1126 C.ar    1  UNL1       -0.0002
     27 C         142.5376  142.9265  164.1458 C.ar    1  UNL1        0.0000
     28 C         141.1255  142.9796  163.6426 C.ar    1  UNL1        0.0014
     29 C         140.1253  141.9624  164.1061 C.ar    1  UNL1        0.0004
     30 C         140.7135  144.0499  162.6758 C.ar    1  UNL1        0.0214
     31 C         139.5838  144.9754  163.0181 C.ar    1  UNL1        0.0990
     32 N         139.1718  146.0458  162.0514 N.ar    1  UNL1       -0.2400
     33 C         139.8896  146.1907  160.7423 C.ar    1  UNL1        0.1284
     34 C         141.0194  145.2651  160.3999 C.ar    1  UNL1        0.1592
     35 F         141.7371  145.4101  159.0908 F       1  UNL1       -0.2025
     36 C         141.4313  144.1948  161.3667 C.ar    1  UNL1        0.0328
@<TRIPOS>BOND
     1    22    23    1
     2    23    14    1
     3    14    15   ar
     4    15    16   ar
     5    16     1    1
     6     1    24    1
     7    24    25   ar
     8    25    26   ar
     9    26    27   ar
    10    27    28   ar
    11    28    30    1
    12    30    31   ar
    13    31    32   ar
    14    32    33   ar
    15    33    34   ar
    16    34    35    1
    17    34    36   ar
    18    28    29   ar
    19     1     2    1
    20     2     3    2
    21     3     4    1
    22     3     5    1
    23     5     6   ar
    24     6     7    1
    25     6     8   ar
    26     8     9   ar
    27     9    10   ar
    28    10    11   ar
    29    16    17   ar
    30    17    18   ar
    31    18    19    1
    32    18    20   ar
    33    20    21    2
    34    20    14   ar
    35    11     1    1
    36    29    24   ar
    37    11     5   ar
    38    36    30   ar
    39     4    12    1
    40     4    13    1
@<TRIPOS>MOLECULE
*****
 36 40 0 0 0
SMALL
GASTEIGER

@<TRIPOS>ATOM
      1 C         139.7640  139.7542  165.9157 C.3     1  UNL1        0.2321
      2 N         138.6829  138.7213  166.0350 N.2     1  UNL1       -0.0614
      3 C         138.1284  138.7894  167.4271 C.2     1  UNL1        0.3157
      4 N         137.0286  137.9329  167.9809 N.pl3   1  UNL1       -0.2464
      5 C         138.8669  139.8643  168.1682 C.ar    1  UNL1        0.1094
      6 C         138.7495  140.3771  169.5729 C.ar    1  UNL1        0.1470
      7 F         137.7386  139.7808  170.5069 F       1  UNL1       -0.2039
      8 C         139.6429  141.4863  170.0434 C.ar    1  UNL1        0.0299
      9 C         140.6538  142.0826  169.1093 C.ar    1  UNL1        0.0021
     10 C         140.7712  141.5698  167.7047 C.ar    1  UNL1        0.0008
     11 C         139.8778  140.4606  167.2341 C.ar    1  UNL1        0.0390
     12 H         136.6030  137.2503  167.4133 H       1  UNL1        0.2884
     13 H         136.7323  138.0533  168.9120 H       1  UNL1        0.2884
     14 N         138.7930  138.7017  162.2144 N.ar    1  UNL1       -0.2946
     15 C         138.6757  139.2145  163.6191 C.ar    1  UNL1        0.0786
     16 C         139.8815  139.2413  164.5110 C.ar    1  UNL1        0.0468
     17 C         141.2046  138.7552  163.9982 C.ar    1  UNL1        0.0023
     18 C         141.3219  138.2424  162.5935 C.ar    1  UNL1        0.0342
     19 C         142.6451  137.7563  162.0806 C.3     1  UNL1        0.0360
     20 C         140.1162  138.2156  161.7016 C.ar    1  UNL1        0.2568
     21 O         140.2336  137.7027  160.2969 O.2     1  UNL1       -0.2673
     22 C         137.3393  139.8005  160.3626 C.3     1  UNL1        0.0266
     23 C         137.5873  138.6749  161.3226 C.3     1  UNL1        0.1091
     24 C         140.8697  140.6799  165.5028 C.ar    1  UNL1        0.0297
     25 C         142.1912  140.6326  166.2109 C.ar    1  UNL1        0.0004
     26 C         143.2970  141.5583  165.7979 C.ar    1  UNL1       -0.0002
     27 C         143.0812  142.5313  164.6768 C.ar    1  UNL1        0.0000
     28 C         141.7597  142.5785  163.9687 C.ar    1  UNL1        0.0014
     29 C         140.6540  141.6529  164.3817 C.ar    1  UNL1        0.0004
     30 C         141.5439  143.5515  162.8476 C.ar    1  UNL1        0.0214
     31 C         142.4219  143.5023  161.6325 C.ar    1  UNL1        0.0990
     32 N         142.2062  144.4752  160.5113 N.ar    1  UNL1       -0.2400
     33 C         141.1124  145.4973  160.6054 C.ar    1  UNL1        0.1284
     34 C         140.2343  145.5465  161.8207 C.ar    1  UNL1        0.1592
     35 F         139.1406  146.5686  161.9146 F       1  UNL1       -0.2025
     36 C         140.4501  144.5736  162.9417 C.ar    1  UNL1        0.0328
@<TRIPOS>BOND
     1    22    23    1
     2    23    14    1
     3    14    15   ar
     4    15    16   ar
     5    16     1    1
     6     1    24    1
     7    24    25   ar
     8    25    26   ar
     9    26    27   ar
    10    27    28   ar
    11    28    30    1
    12    30    31   ar
    13    31    32   ar
    14    32    33   ar
    15    33    34   ar
    16    34    35    1
    17    34    36   ar
    18    28    29   ar
    19     1     2    1
    20     2     3    2
    21     3     4    1
    22     3     5    1
    23     5     6   ar
    24     6     7    1
    25     6     8   ar
    26     8     9   ar
    27     9    10   ar
    28    10    11   ar
    29    16    17   ar
    30    17    18   ar
    31    18    19    1
    32    18    20   ar
    33    20    21    2
    34    20    14   ar
    35    11     1    1
    36    29    24   ar
    37    11     5   ar
    38    36    30   ar
    39     4    12    1
    40     4    13    1
@<TRIPOS>MOLECULE
*****
 36 40 0 0 0
SMALL
GASTEIGER

@<TRIPOS>ATOM
      1 C         140.5926  140.7997  166.8931 C.3     1  UNL1        0.2321
      2 N         139.4036  140.2729  167.6407 N.2     1  UNL1       -0.0614
      3 C         139.6118  140.5536  169.0994 C.2     1  UNL1        0.3157
      4 N         138.6681  140.1966  170.2094 N.pl3   1  UNL1       -0.2464
      5 C         140.9293  141.2538  169.2534 C.ar    1  UNL1        0.1094
      6 C         141.6554  141.7726  170.4590 C.ar    1  UNL1        0.1470
      7 F         141.0493  141.6204  171.8226 F       1  UNL1       -0.2039
      8 C         142.9877  142.4435  170.3011 C.ar    1  UNL1        0.0299
      9 C         143.5938  142.5956  168.9375 C.ar    1  UNL1        0.0021
     10 C         142.8677  142.0769  167.7318 C.ar    1  UNL1        0.0008
     11 C         141.5355  141.4060  167.8898 C.ar    1  UNL1        0.0390
     12 H         137.8224  139.7349  170.0071 H       1  UNL1        0.2884
     13 H         138.8944  140.4241  171.1401 H       1  UNL1        0.2884
     14 N         138.1618  140.6407  163.7600 N.ar    1  UNL1       -0.2946
     15 C         138.8880  141.1594  164.9656 C.ar    1  UNL1        0.0786
     16 C         139.8664  140.2809  165.6874 C.ar    1  UNL1        0.0468
     17 C         140.1187  138.8838  165.2035 C.ar    1  UNL1        0.0023
     18 C         139.3926  138.3650  163.9979 C.ar    1  UNL1        0.0342
     19 C         139.6448  136.9678  163.5140 C.3     1  UNL1        0.0360
     20 C         138.4141  139.2435  163.2761 C.ar    1  UNL1        0.2568
     21 O         137.6880  138.7247  162.0704 O.2     1  UNL1       -0.2673
     22 C         137.6582  142.7672  162.3548 C.3     1  UNL1        0.0266
     23 C         137.1834  141.5192  163.0382 C.3     1  UNL1        0.1091
     24 C         141.6297  141.2181  165.8934 C.ar    1  UNL1        0.0297
     25 C         143.0256  140.6777  165.9901 C.ar    1  UNL1        0.0004
     26 C         144.0628  141.0961  164.9904 C.ar    1  UNL1       -0.0002
     27 C         143.7039  142.0549  163.8940 C.ar    1  UNL1        0.0000
     28 C         142.3080  142.5953  163.7973 C.ar    1  UNL1        0.0014
     29 C         141.2709  142.1769  164.7970 C.ar    1  UNL1        0.0004
     30 C         141.9491  143.5540  162.7010 C.ar    1  UNL1        0.0214
     31 C         142.6887  143.5126  161.3966 C.ar    1  UNL1        0.0990
     32 N         142.3299  144.4713  160.3002 N.ar    1  UNL1       -0.2400
     33 C         141.2315  145.4715  160.5082 C.ar    1  UNL1        0.1284
     34 C         140.4919  145.5128  161.8126 C.ar    1  UNL1        0.1592
     35 F         139.3935  146.5130  162.0204 F       1  UNL1       -0.2025
     36 C         140.8507  144.5542  162.9089 C.ar    1  UNL1        0.0328
@<TRIPOS>BOND
     1    22    23    1
     2    23    14    1
     3    14    15   ar
     4    15    16   ar
     5    16     1    1
     6     1    24    1
     7    24    25   ar
     8    25    26   ar
     9    26    27   ar
    10    27    28   ar
    11    28    30    1
    12    30    31   ar
    13    31    32   ar
    14    32    33   ar
    15    33    34   ar
    16    34    35    1
    17    34    36   ar
    18    28    29   ar
    19     1     2    1
    20     2     3    2
    21     3     4    1
    22     3     5    1
    23     5     6   ar
    24     6     7    1
    25     6     8   ar
    26     8     9   ar
    27     9    10   ar
    28    10    11   ar
    29    16    17   ar
    30    17    18   ar
    31    18    19    1
    32    18    20   ar
    33    20    21    2
    34    20    14   ar
    35    11     1    1
    36    29    24   ar
    37    11     5   ar
    38    36    30   ar
    39     4    12    1
    40     4    13    1
@<TRIPOS>MOLECULE
*****
 36 40 0 0 0
SMALL
GASTEIGER

@<TRIPOS>ATOM
      1 C         141.1970  142.0675  166.8475 C.3     1  UNL1        0.2321
      2 N         140.4238  143.0485  167.6780 N.2     1  UNL1       -0.0614
      3 C         140.4257  142.5584  169.0957 C.2     1  UNL1        0.3157
      4 N         139.7686  143.2336  170.2629 N.pl3   1  UNL1       -0.2464
      5 C         141.2001  141.2745  169.1413 C.ar    1  UNL1        0.1094
      6 C         141.5327  140.3426  170.2686 C.ar    1  UNL1        0.1470
      7 F         141.0560  140.6460  171.6581 F       1  UNL1       -0.2039
      8 C         142.3421  139.1072  170.0063 C.ar    1  UNL1        0.0299
      9 C         142.8188  138.8038  168.6168 C.ar    1  UNL1        0.0021
     10 C         142.4861  139.7358  167.4896 C.ar    1  UNL1        0.0008
     11 C         141.6768  140.9711  167.7518 C.ar    1  UNL1        0.0390
     12 H         139.2802  144.0783  170.1319 H       1  UNL1        0.2884
     13 H         139.8256  142.8320  171.1599 H       1  UNL1        0.2884
     14 N         141.6311  144.6200  163.8397 N.ar    1  UNL1       -0.2946
     15 C         141.9637  143.6880  164.9670 C.ar    1  UNL1        0.0786
     16 C         140.8643  142.9995  165.7202 C.ar    1  UNL1        0.0468
     17 C         139.4323  143.2431  165.3462 C.ar    1  UNL1        0.0023
     18 C         139.0997  144.1751  164.2190 C.ar    1  UNL1        0.0342
     19 C         137.6676  144.4187  163.8449 C.3     1  UNL1        0.0360
     20 C         140.1991  144.8635  163.4657 C.ar    1  UNL1        0.2568
     21 O         139.8664  145.7956  162.3385 O.2     1  UNL1       -0.2673
     22 C         144.0218  144.5921  162.8230 C.3     1  UNL1        0.0266
     23 C         142.7305  145.3084  163.0865 C.3     1  UNL1        0.1091
     24 C         141.9006  141.2814  165.7813 C.ar    1  UNL1        0.0297
     25 C         143.3911  141.1193  165.8293 C.ar    1  UNL1        0.0004
     26 C         144.0948  140.3331  164.7630 C.ar    1  UNL1       -0.0002
     27 C         143.3080  139.7091  163.6487 C.ar    1  UNL1        0.0000
     28 C         141.8175  139.8712  163.6007 C.ar    1  UNL1        0.0014
     29 C         141.1139  140.6573  164.6669 C.ar    1  UNL1        0.0004
     30 C         141.0307  139.2472  162.4865 C.ar    1  UNL1        0.0214
     31 C         141.6543  139.0746  161.1332 C.ar    1  UNL1        0.0990
     32 N         140.8676  138.4506  160.0189 N.ar    1  UNL1       -0.2400
     33 C         139.4572  137.9992  160.2579 C.ar    1  UNL1        0.1284
     34 C         138.8336  138.1718  161.6112 C.ar    1  UNL1        0.1592
     35 F         137.4232  137.7204  161.8501 F       1  UNL1       -0.2025
     36 C         139.6203  138.7958  162.7255 C.ar    1  UNL1        0.0328
@<TRIPOS>BOND
     1    22    23    1
     2    23    14    1
     3    14    15   ar
     4    15    16   ar
     5    16     1    1
     6     1    24    1
     7    24    25   ar
     8    25    26   ar
     9    26    27   ar
    10    27    28   ar
    11    28    30    1
    12    30    31   ar
    13    31    32   ar
    14    32    33   ar
    15    33    34   ar
    16    34    35    1
    17    34    36   ar
    18    28    29   ar
    19     1     2    1
    20     2     3    2
    21     3     4    1
    22     3     5    1
    23     5     6   ar
    24     6     7    1
    25     6     8   ar
    26     8     9   ar
    27     9    10   ar
    28    10    11   ar
    29    16    17   ar
    30    17    18   ar
    31    18    19    1
    32    18    20   ar
    33    20    21    2
    34    20    14   ar
    35    11     1    1
    36    29    24   ar
    37    11     5   ar
    38    36    30   ar
    39     4    12    1
    40     4    13    1
@<TRIPOS>MOLECULE
*****
 36 40 0 0 0
SMALL
GASTEIGER

@<TRIPOS>ATOM
      1 C         140.9462  141.8370  162.4689 C.3     1  UNL1        0.2321
      2 N         141.8251  142.5789  161.5060 N.2     1  UNL1       -0.0614
      3 C         141.2574  143.9558  161.3268 C.2     1  UNL1        0.3157
      4 N         141.8206  145.0343  160.4495 N.pl3   1  UNL1       -0.2464
      5 C         140.0278  144.0647  162.1789 C.ar    1  UNL1        0.1094
      6 C         139.0584  145.1872  162.4032 C.ar    1  UNL1        0.1470
      7 F         139.2507  146.4967  161.6974 F       1  UNL1       -0.2039
      8 C         137.8966  145.0001  163.3335 C.ar    1  UNL1        0.0299
      9 C         137.7043  143.6906  164.0393 C.ar    1  UNL1        0.0021
     10 C         138.6737  142.5682  163.8150 C.ar    1  UNL1        0.0008
     11 C         139.8354  142.7553  162.8848 C.ar    1  UNL1        0.0390
     12 H         142.6367  144.8663  159.9252 H       1  UNL1        0.2884
     13 H         141.3740  145.9102  160.3980 H       1  UNL1        0.2884
     14 N         142.7925  138.7585  160.7765 N.ar    1  UNL1       -0.2946
     15 C         141.8232  139.8810  161.0009 C.ar    1  UNL1        0.0786
     16 C         141.9157  140.7145  162.2445 C.ar    1  UNL1        0.0468
     17 C         142.9776  140.4257  163.2637 C.ar    1  UNL1        0.0023
     18 C         143.9470  139.3033  163.0393 C.ar    1  UNL1        0.0342
     19 C         145.0090  139.0144  164.0585 C.3     1  UNL1        0.0360
     20 C         143.8545  138.4697  161.7957 C.ar    1  UNL1        0.2568
     21 O         144.8239  137.3472  161.5713 O.2     1  UNL1       -0.2673
     22 C         142.6527  138.5873  158.1878 C.3     1  UNL1        0.0266
     23 C         142.7000  137.9250  159.5329 C.3     1  UNL1        0.1091
     24 C         140.2700  140.8604  163.3849 C.ar    1  UNL1        0.0297
     25 C         139.3075  139.8533  162.8287 C.ar    1  UNL1        0.0004
     26 C         138.6313  138.8767  163.7448 C.ar    1  UNL1       -0.0002
     27 C         138.9177  138.9072  165.2169 C.ar    1  UNL1        0.0000
     28 C         139.8802  139.9143  165.7730 C.ar    1  UNL1        0.0014
     29 C         140.5564  140.8909  164.8570 C.ar    1  UNL1        0.0004
     30 C         140.1666  139.9448  167.2451 C.ar    1  UNL1        0.0214
     31 C         139.0449  139.8006  168.2305 C.ar    1  UNL1        0.0990
     32 N         139.3312  139.8311  169.7026 N.ar    1  UNL1       -0.2400
     33 C         140.7393  140.0058  170.1893 C.ar    1  UNL1        0.1284
     34 C         141.8610  140.1499  169.2038 C.ar    1  UNL1        0.1592
     35 F         143.2690  140.3246  169.6906 F       1  UNL1       -0.2025
     36 C         141.5747  140.1194  167.7318 C.ar    1  UNL1        0.0328
@<TRIPOS>BOND
     1    22    23    1
     2    23    14    1
     3    14    15   ar
     4    15    16   ar
     5    16     1    1
     6     1    24    1
     7    24    25   ar
     8    25    26   ar
     9    26    27   ar
    10    27    28   ar
    11    28    30    1
    12    30    31   ar
    13    31    32   ar
    14    32    33   ar
    15    33    34   ar
    16    34    35    1
    17    34    36   ar
    18    28    29   ar
    19     1     2    1
    20     2     3    2
    21     3     4    1
    22     3     5    1
    23     5     6   ar
    24     6     7    1
    25     6     8   ar
    26     8     9   ar
    27     9    10   ar
    28    10    11   ar
    29    16    17   ar
    30    17    18   ar
    31    18    19    1
    32    18    20   ar
    33    20    21    2
    34    20    14   ar
    35    11     1    1
    36    29    24   ar
    37    11     5   ar
    38    36    30   ar
    39     4    12    1
    40     4    13    1
@<TRIPOS>MOLECULE
*****
 36 40 0 0 0
SMALL
GASTEIGER

@<TRIPOS>ATOM
      1 C         140.8943  141.8835  162.4112 C.3     1  UNL1        0.2321
      2 N         141.7856  142.6243  161.4590 N.2     1  UNL1       -0.0614
      3 C         141.2326  144.0081  161.2878 C.2     1  UNL1        0.3157
      4 N         141.8111  145.0879  160.4221 N.pl3   1  UNL1       -0.2464
      5 C         139.9994  144.1225  162.1341 C.ar    1  UNL1        0.1094
      6 C         139.0400  145.2527  162.3622 C.ar    1  UNL1        0.1470
      7 F         139.2491  146.5658  161.6679 F       1  UNL1       -0.2039
      8 C         137.8714  145.0698  163.2847 C.ar    1  UNL1        0.0299
      9 C         137.6624  143.7568  163.9791 C.ar    1  UNL1        0.0021
     10 C         138.6218  142.6266  163.7510 C.ar    1  UNL1        0.0008
     11 C         139.7903  142.8095  162.8285 C.ar    1  UNL1        0.0390
     12 H         142.6284  144.9159  159.9008 H       1  UNL1        0.2884
     13 H         141.3735  145.9685  160.3752 H       1  UNL1        0.2884
     14 N         143.8208  139.2705  163.0088 N.ar    1  UNL1       -0.2946
     15 C         142.8613  140.4006  163.2369 C.ar    1  UNL1        0.0786
     16 C         141.8538  140.7533  162.1831 C.ar    1  UNL1        0.0468
     17 C         141.8058  139.9759  160.9012 C.ar    1  UNL1        0.0023
     18 C         142.7653  138.8458  160.6731 C.ar    1  UNL1        0.0342
     19 C         142.7173  138.0683  159.3912 C.3     1  UNL1        0.0360
     20 C         143.7728  138.4930  161.7269 C.ar    1  UNL1        0.2568
     21 O         144.7323  137.3628  161.4988 O.2     1  UNL1       -0.2673
     22 C         144.4082  138.8202  165.4992 C.3     1  UNL1        0.0266
     23 C         144.8284  138.9177  164.0626 C.3     1  UNL1        0.1091
     24 C         140.2035  140.9065  163.3158 C.ar    1  UNL1        0.0297
     25 C         139.2187  139.9270  162.7494 C.ar    1  UNL1        0.0004
     26 C         138.5280  138.9499  163.6540 C.ar    1  UNL1       -0.0002
     27 C         138.8220  138.9523  165.1249 C.ar    1  UNL1        0.0000
     28 C         139.8068  139.9318  165.6913 C.ar    1  UNL1        0.0014
     29 C         140.4976  140.9089  164.7867 C.ar    1  UNL1        0.0004
     30 C         140.1009  139.9343  167.1622 C.ar    1  UNL1        0.0214
     31 C         138.9794  139.8173  168.1514 C.ar    1  UNL1        0.0990
     32 N         139.2733  139.8197  169.6223 N.ar    1  UNL1       -0.2400
     33 C         140.6889  139.9392  170.1040 C.ar    1  UNL1        0.1284
     34 C         141.8104  140.0562  169.1147 C.ar    1  UNL1        0.1592
     35 F         143.2259  140.1757  169.5964 F       1  UNL1       -0.2025
     36 C         141.5164  140.0537  167.6438 C.ar    1  UNL1        0.0328
@<TRIPOS>BOND
     1    22    23    1
     2    23    14    1
     3    14    15   ar
     4    15    16   ar
     5    16     1    1
     6     1    24    1
     7    24    25   ar
     8    25    26   ar
     9    26    27   ar
    10    27    28   ar
    11    28    30    1
    12    30    31   ar
    13    31    32   ar
    14    32    33   ar
    15    33    34   ar
    16    34    35    1
    17    34    36   ar
    18    28    29   ar
    19     1     2    1
    20     2     3    2
    21     3     4    1
    22     3     5    1
    23     5     6   ar
    24     6     7    1
    25     6     8   ar
    26     8     9   ar
    27     9    10   ar
    28    10    11   ar
    29    16    17   ar
    30    17    18   ar
    31    18    19    1
    32    18    20   ar
    33    20    21    2
    34    20    14   ar
    35    11     1    1
    36    29    24   ar
    37    11     5   ar
    38    36    30   ar
    39     4    12    1
    40     4    13    1
@<TRIPOS>MOLECULE
*****
 36 40 0 0 0
SMALL
GASTEIGER

@<TRIPOS>ATOM
      1 C         141.4636  142.0859  166.8446 C.3     1  UNL1        0.2321
      2 N         140.7660  143.1540  167.6336 N.2     1  UNL1       -0.0614
      3 C         140.6747  142.6929  169.0581 C.2     1  UNL1        0.3157
      4 N         140.0516  143.4517  170.1921 N.pl3   1  UNL1       -0.2464
      5 C         141.3158  141.3399  169.1494 C.ar    1  UNL1        0.1094
      6 C         141.5186  140.4011  170.3015 C.ar    1  UNL1        0.1470
      7 F         141.0311  140.7762  171.6695 F       1  UNL1       -0.2039
      8 C         142.2090  139.0871  170.0855 C.ar    1  UNL1        0.0299
      9 C         142.6966  138.7119  168.7175 C.ar    1  UNL1        0.0021
     10 C         142.4938  139.6508  167.5654 C.ar    1  UNL1        0.0008
     11 C         141.8034  140.9648  167.7814 C.ar    1  UNL1        0.0390
     12 H         139.6540  144.3379  170.0318 H       1  UNL1        0.2884
     13 H         140.0403  143.0634  171.0968 H       1  UNL1        0.2884
     14 N         139.6715  144.2646  164.0532 N.ar    1  UNL1       -0.2946
     15 C         139.8743  143.3257  165.2053 C.ar    1  UNL1        0.0786
     16 C         141.2608  143.0249  165.6924 C.ar    1  UNL1        0.0468
     17 C         142.4443  143.6629  165.0275 C.ar    1  UNL1        0.0023
     18 C         142.2414  144.6018  163.8755 C.ar    1  UNL1        0.0342
     19 C         143.4250  145.2398  163.2105 C.3     1  UNL1        0.0360
     20 C         140.8550  144.9026  163.3883 C.ar    1  UNL1        0.2568
     21 O         140.6522  145.8416  162.2362 O.2     1  UNL1       -0.2673
     22 C         137.5718  143.5861  162.6818 C.3     1  UNL1        0.0266
     23 C         138.2851  144.5655  163.5660 C.3     1  UNL1        0.1091
     24 C         142.1188  141.2141  165.8147 C.ar    1  UNL1        0.0297
     25 C         143.5887  140.9275  165.9000 C.ar    1  UNL1        0.0004
     26 C         144.2439  140.0557  164.8700 C.ar    1  UNL1       -0.0002
     27 C         143.4291  139.4705  163.7548 C.ar    1  UNL1        0.0000
     28 C         141.9592  139.7572  163.6694 C.ar    1  UNL1        0.0014
     29 C         141.3041  140.6289  164.6993 C.ar    1  UNL1        0.0004
     30 C         141.1445  139.1720  162.5542 C.ar    1  UNL1        0.0214
     31 C         141.7391  139.0328  161.1841 C.ar    1  UNL1        0.0990
     32 N         140.9245  138.4477  160.0688 N.ar    1  UNL1       -0.2400
     33 C         139.5151  138.0017  160.3236 C.ar    1  UNL1        0.1284
     34 C         138.9205  138.1409  161.6937 C.ar    1  UNL1        0.1592
     35 F         137.5112  137.6949  161.9484 F       1  UNL1       -0.2025
     36 C         139.7352  138.7260  162.8090 C.ar    1  UNL1        0.0328
@<TRIPOS>BOND
     1    22    23    1
     2    23    14    1
     3    14    15   ar
     4    15    16   ar
     5    16     1    1
     6     1    24    1
     7    24    25   ar
     8    25    26   ar
     9    26    27   ar
    10    27    28   ar
    11    28    30    1
    12    30    31   ar
    13    31    32   ar
    14    32    33   ar
    15    33    34   ar
    16    34    35    1
    17    34    36   ar
    18    28    29   ar
    19     1     2    1
    20     2     3    2
    21     3     4    1
    22     3     5    1
    23     5     6   ar
    24     6     7    1
    25     6     8   ar
    26     8     9   ar
    27     9    10   ar
    28    10    11   ar
    29    16    17   ar
    30    17    18   ar
    31    18    19    1
    32    18    20   ar
    33    20    21    2
    34    20    14   ar
    35    11     1    1
    36    29    24   ar
    37    11     5   ar
    38    36    30   ar
    39     4    12    1
    40     4    13    1
@<TRIPOS>MOLECULE
*****
 36 40 0 0 0
SMALL
GASTEIGER

@<TRIPOS>ATOM
      1 C         142.4538  143.2708  159.8254 C.3     1  UNL1        0.2321
      2 N         141.9188  143.8922  158.5693 N.2     1  UNL1       -0.0614
      3 C         140.9727  144.9883  158.9610 C.2     1  UNL1        0.3157
      4 N         140.2102  145.8731  158.0199 N.pl3   1  UNL1       -0.2464
      5 C         140.9230  145.0444  160.4592 C.ar    1  UNL1        0.1094
      6 C         140.1625  145.9248  161.4059 C.ar    1  UNL1        0.1470
      7 F         139.2471  146.9863  160.8717 F       1  UNL1       -0.2039
      8 C         140.3173  145.7438  162.8869 C.ar    1  UNL1        0.0299
      9 C         141.2327  144.6823  163.4210 C.ar    1  UNL1        0.0021
     10 C         141.9932  143.8019  162.4743 C.ar    1  UNL1        0.0008
     11 C         141.8383  143.9829  160.9934 C.ar    1  UNL1        0.0390
     12 H         140.3097  145.7587  157.0471 H       1  UNL1        0.2884
     13 H         139.6101  146.5682  158.3749 H       1  UNL1        0.2884
     14 N         145.3048  141.9540  157.3989 N.ar    1  UNL1       -0.2946
     15 C         144.5443  142.8344  158.3457 C.ar    1  UNL1        0.0786
     16 C         143.2143  142.3904  158.8785 C.ar    1  UNL1        0.0468
     17 C         142.6448  141.0659  158.4645 C.ar    1  UNL1        0.0023
     18 C         143.4054  140.1855  157.5177 C.ar    1  UNL1        0.0342
     19 C         142.8359  138.8610  157.1037 C.3     1  UNL1        0.0360
     20 C         144.7354  140.6296  156.9849 C.ar    1  UNL1        0.2568
     21 O         145.4959  139.7491  156.0381 O.2     1  UNL1       -0.2673
     22 C         147.5730  143.1735  157.7428 C.3     1  UNL1        0.0266
     23 C         146.6349  142.3981  156.8661 C.3     1  UNL1        0.1091
     24 C         143.1478  142.4654  160.8834 C.ar    1  UNL1        0.0297
     25 C         144.5541  142.8029  161.2812 C.ar    1  UNL1        0.0004
     26 C         145.2481  141.9974  162.3394 C.ar    1  UNL1       -0.0002
     27 C         144.5357  140.8544  162.9997 C.ar    1  UNL1        0.0000
     28 C         143.1294  140.5169  162.6019 C.ar    1  UNL1        0.0014
     29 C         142.4354  141.3223  161.5438 C.ar    1  UNL1        0.0004
     30 C         142.4170  139.3739  163.2623 C.ar    1  UNL1        0.0214
     31 C         143.0059  138.7263  164.4803 C.ar    1  UNL1        0.0990
     32 N         142.2937  137.5833  165.1408 N.ar    1  UNL1       -0.2400
     33 C         140.9923  137.0878  164.5830 C.ar    1  UNL1        0.1284
     34 C         140.4034  137.7354  163.3648 C.ar    1  UNL1        0.1592
     35 F         139.1020  137.2399  162.8072 F       1  UNL1       -0.2025
     36 C         141.1156  138.8784  162.7045 C.ar    1  UNL1        0.0328
@<TRIPOS>BOND
     1    22    23    1
     2    23    14    1
     3    14    15   ar
     4    15    16   ar
     5    16     1    1
     6     1    24    1
     7    24    25   ar
     8    25    26   ar
     9    26    27   ar
    10    27    28   ar
    11    28    30    1
    12    30    31   ar
    13    31    32   ar
    14    32    33   ar
    15    33    34   ar
    16    34    35    1
    17    34    36   ar
    18    28    29   ar
    19     1     2    1
    20     2     3    2
    21     3     4    1
    22     3     5    1
    23     5     6   ar
    24     6     7    1
    25     6     8   ar
    26     8     9   ar
    27     9    10   ar
    28    10    11   ar
    29    16    17   ar
    30    17    18   ar
    31    18    19    1
    32    18    20   ar
    33    20    21    2
    34    20    14   ar
    35    11     1    1
    36    29    24   ar
    37    11     5   ar
    38    36    30   ar
    39     4    12    1
    40     4    13    1
@<TRIPOS>MOLECULE
*****
 36 40 0 0 0
SMALL
GASTEIGER

@<TRIPOS>ATOM
      1 C         141.6259  139.2818  165.3010 C.3     1  UNL1        0.2321
      2 N         142.8109  138.3632  165.3474 N.2     1  UNL1       -0.0614
      3 C         143.2849  138.2896  166.7687 C.2     1  UNL1        0.3157
      4 N         144.4469  137.4844  167.2700 N.pl3   1  UNL1       -0.2464
      5 C         142.3929  139.1627  167.6006 C.ar    1  UNL1        0.1094
      6 C         142.3819  139.4786  169.0669 C.ar    1  UNL1        0.1470
      7 F         143.4072  138.8654  169.9740 F       1  UNL1       -0.2039
      8 C         141.3455  140.4076  169.6262 C.ar    1  UNL1        0.0299
      9 C         140.3202  141.0208  168.7191 C.ar    1  UNL1        0.0021
     10 C         140.3313  140.7049  167.2528 C.ar    1  UNL1        0.0008
     11 C         141.3676  139.7759  166.6936 C.ar    1  UNL1        0.0390
     12 H         144.9750  136.9392  166.6430 H       1  UNL1        0.2884
     13 H         144.6814  137.5009  168.2260 H       1  UNL1        0.2884
     14 N         140.3666  138.3176  161.6631 N.ar    1  UNL1       -0.2946
     15 C         140.3556  138.6335  163.1294 C.ar    1  UNL1        0.0786
     16 C         141.6370  138.9659  163.8347 C.ar    1  UNL1        0.0468
     17 C         142.9295  138.9823  163.0737 C.ar    1  UNL1        0.0023
     18 C         142.9405  138.6664  161.6074 C.ar    1  UNL1        0.0342
     19 C         144.2331  138.6829  160.8463 C.3     1  UNL1        0.0360
     20 C         141.6591  138.3341  160.9021 C.ar    1  UNL1        0.2568
     21 O         141.6702  138.0182  159.4357 O.2     1  UNL1       -0.2673
     22 C         137.7697  138.3353  161.5879 C.3     1  UNL1        0.0266
     23 C         139.0851  137.9853  160.9578 C.3     1  UNL1        0.1091
     24 C         140.4433  140.1343  164.9481 C.ar    1  UNL1        0.0297
     25 C         139.0745  139.7548  165.4303 C.ar    1  UNL1        0.0004
     26 C         137.8919  140.6074  165.0773 C.ar    1  UNL1       -0.0002
     27 C         138.0780  141.8394  164.2421 C.ar    1  UNL1        0.0000
     28 C         139.4468  142.2189  163.7599 C.ar    1  UNL1        0.0014
     29 C         140.6294  141.3663  164.1129 C.ar    1  UNL1        0.0004
     30 C         139.6329  143.4508  162.9247 C.ar    1  UNL1        0.0214
     31 C         138.6998  144.6141  163.0857 C.ar    1  UNL1        0.0990
     32 N         138.8858  145.8462  162.2506 N.ar    1  UNL1       -0.2400
     33 C         140.0051  145.9149  161.2544 C.ar    1  UNL1        0.1284
     34 C         140.9383  144.7515  161.0934 C.ar    1  UNL1        0.1592
     35 F         142.0576  144.8203  160.0971 F       1  UNL1       -0.2025
     36 C         140.7522  143.5196  161.9285 C.ar    1  UNL1        0.0328
@<TRIPOS>BOND
     1    22    23    1
     2    23    14    1
     3    14    15   ar
     4    15    16   ar
     5    16     1    1
     6     1    24    1
     7    24    25   ar
     8    25    26   ar
     9    26    27   ar
    10    27    28   ar
    11    28    30    1
    12    30    31   ar
    13    31    32   ar
    14    32    33   ar
    15    33    34   ar
    16    34    35    1
    17    34    36   ar
    18    28    29   ar
    19     1     2    1
    20     2     3    2
    21     3     4    1
    22     3     5    1
    23     5     6   ar
    24     6     7    1
    25     6     8   ar
    26     8     9   ar
    27     9    10   ar
    28    10    11   ar
    29    16    17   ar
    30    17    18   ar
    31    18    19    1
    32    18    20   ar
    33    20    21    2
    34    20    14   ar
    35    11     1    1
    36    29    24   ar
    37    11     5   ar
    38    36    30   ar
    39     4    12    1
    40     4    13    1
