@<TRIPOS>MOLECULE
*****
 22 24 0 0 0
SMALL
GASTEIGER

@<TRIPOS>ATOM
      1 C         140.8527  141.3649  169.4854 C.3     1  UNL1        0.0207
      2 C         139.7506  140.3970  169.1714 C.3     1  UNL1        0.0274
      3 C         139.4260  140.0671  167.7446 C.ar    1  UNL1       -0.0258
      4 C         138.3239  139.0993  167.4305 C.ar    1  UNL1       -0.0046
      5 C         137.9995  138.7694  166.0037 C.ar    1  UNL1       -0.0003
      6 C         138.7771  139.4074  164.8909 C.ar    1  UNL1       -0.0003
      7 C         139.8791  140.3752  165.2049 C.ar    1  UNL1       -0.0043
      8 C         140.2036  140.7051  166.6317 C.ar    1  UNL1       -0.0224
      9 C         141.3058  141.6729  166.9458 C.3     1  UNL1        0.0443
     10 C         141.6303  142.0028  168.3726 C.3     1  UNL1        0.0104
     11 C         142.0834  142.3109  165.8330 C.ar    1  UNL1       -0.0175
     12 C         141.4888  143.4507  165.0600 C.ar    1  UNL1       -0.0030
     13 C         142.2664  144.0886  163.9472 C.ar    1  UNL1        0.0119
     14 C         143.6386  143.5868  163.6074 C.ar    1  UNL1        0.0682
     15 CL        144.4162  144.2248  162.4946 Cl      1  UNL1       -0.0814
     16 C         144.2331  142.4471  164.3804 C.ar    1  UNL1        0.0679
     17 CL        145.6053  141.9453  164.0406 Cl      1  UNL1       -0.0814
     18 C         143.4555  141.8092  165.4932 C.ar    1  UNL1        0.0083
     19 C         141.1772  141.6948  170.9123 C.3     1  UNL1        0.0689
     20 C         143.0520  139.8968  170.9576 C.3     1  UNL1        0.0859
     21 N         142.1297  140.8304  171.6840 N.3     1  UNL1       -0.2963
     22 H         142.7178  141.4575  172.2328 H       1  UNL1        0.1233
@<TRIPOS>BOND
     1    20    21    1
     2    21    19    1
     3     1    19    1
     4     1     2    1
     5     2     3    1
     6     3     4   ar
     7     4     5   ar
     8     5     6   ar
     9     6     7   ar
    10     7     8   ar
    11     8     9    1
    12     9    11    1
    13    11    12   ar
    14    12    13   ar
    15    13    14   ar
    16    14    15    1
    17    14    16   ar
    18    16    17    1
    19    16    18   ar
    20     9    10    1
    21    10     1    1
    22     8     3   ar
    23    18    11   ar
    24    21    22    1
@<TRIPOS>MOLECULE
*****
 22 24 0 0 0
SMALL
GASTEIGER

@<TRIPOS>ATOM
      1 C         143.9163  142.8641  164.4830 C.3     1  UNL1        0.0207
      2 C         143.2236  143.8168  163.5544 C.3     1  UNL1        0.0274
      3 C         141.7740  144.1436  163.7596 C.ar    1  UNL1       -0.0258
      4 C         141.0812  145.0963  162.8310 C.ar    1  UNL1       -0.0046
      5 C         139.6317  145.4230  163.0362 C.ar    1  UNL1       -0.0003
      6 C         138.8750  144.7970  164.1700 C.ar    1  UNL1       -0.0003
      7 C         139.5678  143.8443  165.0986 C.ar    1  UNL1       -0.0043
      8 C         141.0173  143.5176  164.8934 C.ar    1  UNL1       -0.0224
      9 C         141.7101  142.5648  165.8220 C.3     1  UNL1        0.0443
     10 C         143.1596  142.2381  165.6168 C.3     1  UNL1        0.0104
     11 C         140.9534  141.9388  166.9558 C.ar    1  UNL1       -0.0175
     12 C         140.3087  140.5963  166.7765 C.ar    1  UNL1       -0.0030
     13 C         139.5519  139.9703  167.9103 C.ar    1  UNL1        0.0119
     14 C         139.4400  140.6868  169.2234 C.ar    1  UNL1        0.0682
     15 CL        138.6832  140.0608  170.3572 Cl      1  UNL1       -0.0814
     16 C         140.0847  142.0293  169.4027 C.ar    1  UNL1        0.0679
     17 CL        139.9727  142.7458  170.7158 Cl      1  UNL1       -0.0814
     18 C         140.8414  142.6552  168.2689 C.ar    1  UNL1        0.0083
     19 C         145.3659  142.5374  164.2779 C.3     1  UNL1        0.0689
     20 C         144.8749  140.8764  162.3414 C.3     1  UNL1        0.0859
     21 N         145.8059  141.8291  163.0310 N.3     1  UNL1       -0.2963
     22 H         146.0452  142.5509  162.3512 H       1  UNL1        0.1233
@<TRIPOS>BOND
     1    20    21    1
     2    21    19    1
     3     1    19    1
     4     1     2    1
     5     2     3    1
     6     3     4   ar
     7     4     5   ar
     8     5     6   ar
     9     6     7   ar
    10     7     8   ar
    11     8     9    1
    12     9    11    1
    13    11    12   ar
    14    12    13   ar
    15    13    14   ar
    16    14    15    1
    17    14    16   ar
    18    16    17    1
    19    16    18   ar
    20     9    10    1
    21    10     1    1
    22     8     3   ar
    23    18    11   ar
    24    21    22    1
@<TRIPOS>MOLECULE
*****
 22 24 0 0 0
SMALL
GASTEIGER

@<TRIPOS>ATOM
      1 C         139.9428  141.5374  169.2305 C.3     1  UNL1        0.0207
      2 C         139.1723  140.3273  168.7926 C.3     1  UNL1        0.0274
      3 C         139.2281  139.8797  167.3620 C.ar    1  UNL1       -0.0258
      4 C         138.4576  138.6696  166.9241 C.ar    1  UNL1       -0.0046
      5 C         138.5134  138.2221  165.4935 C.ar    1  UNL1       -0.0003
      6 C         139.3399  138.9847  164.5009 C.ar    1  UNL1       -0.0003
      7 C         140.1105  140.1948  164.9387 C.ar    1  UNL1       -0.0043
      8 C         140.0546  140.6423  166.3693 C.ar    1  UNL1       -0.0224
      9 C         140.8252  141.8525  166.8073 C.3     1  UNL1        0.0443
     10 C         140.7693  142.3000  168.2378 C.3     1  UNL1        0.0104
     11 C         141.6516  142.6151  165.8146 C.ar    1  UNL1       -0.0175
     12 C         143.1253  142.3557  165.7089 C.ar    1  UNL1       -0.0030
     13 C         143.9517  143.1183  164.7162 C.ar    1  UNL1        0.0119
     14 C         143.3045  144.1403  163.8292 C.ar    1  UNL1        0.0682
     15 CL        144.1309  144.9030  162.8365 Cl      1  UNL1       -0.0814
     16 C         141.8309  144.3997  163.9349 C.ar    1  UNL1        0.0679
     17 CL        141.1837  145.4217  163.0479 Cl      1  UNL1       -0.0814
     18 C         141.0045  143.6371  164.9276 C.ar    1  UNL1        0.0083
     19 C         139.8870  141.9850  170.6611 C.3     1  UNL1        0.0689
     20 C         142.0871  140.7368  171.2538 C.3     1  UNL1        0.0859
     21 N         140.7877  141.3529  171.6805 N.3     1  UNL1       -0.2963
     22 H         141.0149  142.0769  172.3620 H       1  UNL1        0.1233
@<TRIPOS>BOND
     1    20    21    1
     2    21    19    1
     3     1    19    1
     4     1     2    1
     5     2     3    1
     6     3     4   ar
     7     4     5   ar
     8     5     6   ar
     9     6     7   ar
    10     7     8   ar
    11     8     9    1
    12     9    11    1
    13    11    12   ar
    14    12    13   ar
    15    13    14   ar
    16    14    15    1
    17    14    16   ar
    18    16    17    1
    19    16    18   ar
    20     9    10    1
    21    10     1    1
    22     8     3   ar
    23    18    11   ar
    24    21    22    1
@<TRIPOS>MOLECULE
*****
 22 24 0 0 0
SMALL
GASTEIGER

@<TRIPOS>ATOM
      1 C         138.4541  139.2803  163.1415 C.3     1  UNL1        0.0207
      2 C         137.9956  140.6464  162.7251 C.3     1  UNL1        0.0274
      3 C         138.3239  141.8388  163.5739 C.ar    1  UNL1       -0.0258
      4 C         137.8655  143.2049  163.1575 C.ar    1  UNL1       -0.0046
      5 C         138.1938  144.3973  164.0063 C.ar    1  UNL1       -0.0003
      6 C         138.9806  144.2234  165.2715 C.ar    1  UNL1       -0.0003
      7 C         139.4391  142.8573  165.6879 C.ar    1  UNL1       -0.0043
      8 C         139.1108  141.6650  164.8391 C.ar    1  UNL1       -0.0224
      9 C         139.5692  140.2988  165.2554 C.3     1  UNL1        0.0443
     10 C         139.2409  139.1064  164.4066 C.3     1  UNL1        0.0104
     11 C         140.3561  140.1249  166.5206 C.ar    1  UNL1       -0.0175
     12 C         141.8352  139.8835  166.4568 C.ar    1  UNL1       -0.0030
     13 C         142.6220  139.7097  167.7220 C.ar    1  UNL1        0.0119
     14 C         141.9297  139.7773  169.0510 C.ar    1  UNL1        0.0682
     15 CL        142.7165  139.6035  170.3162 Cl      1  UNL1       -0.0814
     16 C         140.4507  140.0187  169.1148 C.ar    1  UNL1        0.0679
     17 CL        139.7584  140.0863  170.4438 Cl      1  UNL1       -0.0814
     18 C         139.6638  140.1925  167.8496 C.ar    1  UNL1        0.0083
     19 C         138.1257  138.0878  162.2926 C.3     1  UNL1        0.0689
     20 C         140.3964  138.3130  161.0506 C.3     1  UNL1        0.0859
     21 N         139.0327  137.6986  161.1632 N.3     1  UNL1       -0.2963
     22 H         139.1687  136.6899  161.2289 H       1  UNL1        0.1233
@<TRIPOS>BOND
     1    20    21    1
     2    21    19    1
     3     1    19    1
     4     1     2    1
     5     2     3    1
     6     3     4   ar
     7     4     5   ar
     8     5     6   ar
     9     6     7   ar
    10     7     8   ar
    11     8     9    1
    12     9    11    1
    13    11    12   ar
    14    12    13   ar
    15    13    14   ar
    16    14    15    1
    17    14    16   ar
    18    16    17    1
    19    16    18   ar
    20     9    10    1
    21    10     1    1
    22     8     3   ar
    23    18    11   ar
    24    21    22    1
@<TRIPOS>MOLECULE
*****
 22 24 0 0 0
SMALL
GASTEIGER

@<TRIPOS>ATOM
      1 C         138.1872  142.8486  163.7046 C.3     1  UNL1        0.0207
      2 C         137.7871  141.8152  162.6937 C.3     1  UNL1        0.0274
      3 C         138.1894  140.3829  162.8857 C.ar    1  UNL1       -0.0258
      4 C         137.7893  139.3496  161.8747 C.ar    1  UNL1       -0.0046
      5 C         138.1916  137.9174  162.0667 C.ar    1  UNL1       -0.0003
      6 C         138.9939  137.5185  163.2697 C.ar    1  UNL1       -0.0003
      7 C         139.3939  138.5518  164.2807 C.ar    1  UNL1       -0.0043
      8 C         138.9917  139.9841  164.0886 C.ar    1  UNL1       -0.0224
      9 C         139.3917  141.0175  165.0997 C.3     1  UNL1        0.0443
     10 C         138.9895  142.4497  164.9076 C.3     1  UNL1        0.0104
     11 C         140.1941  140.6186  166.3026 C.ar    1  UNL1       -0.0175
     12 C         141.6516  140.2945  166.1583 C.ar    1  UNL1       -0.0030
     13 C         142.4539  139.8956  167.3613 C.ar    1  UNL1        0.0119
     14 C         141.7987  139.8209  168.7086 C.ar    1  UNL1        0.0682
     15 CL        142.6010  139.4220  169.9116 Cl      1  UNL1       -0.0814
     16 C         140.3413  140.1450  168.8529 C.ar    1  UNL1        0.0679
     17 CL        139.6861  140.0702  170.2002 Cl      1  UNL1       -0.0814
     18 C         139.5390  140.5438  167.6499 C.ar    1  UNL1        0.0083
     19 C         137.7849  144.2809  163.5127 C.3     1  UNL1        0.0689
     20 C         139.7854  145.4691  162.3569 C.3     1  UNL1        0.0859
     21 N         138.3400  145.0681  162.3629 N.3     1  UNL1       -0.2963
     22 H         138.1855  144.5109  161.5226 H       1  UNL1        0.1233
@<TRIPOS>BOND
     1    20    21    1
     2    21    19    1
     3     1    19    1
     4     1     2    1
     5     2     3    1
     6     3     4   ar
     7     4     5   ar
     8     5     6   ar
     9     6     7   ar
    10     7     8   ar
    11     8     9    1
    12     9    11    1
    13    11    12   ar
    14    12    13   ar
    15    13    14   ar
    16    14    15    1
    17    14    16   ar
    18    16    17    1
    19    16    18   ar
    20     9    10    1
    21    10     1    1
    22     8     3   ar
    23    18    11   ar
    24    21    22    1
@<TRIPOS>MOLECULE
*****
 22 24 0 0 0
SMALL
GASTEIGER

@<TRIPOS>ATOM
      1 C         139.3364  139.1224  166.0268 C.3     1  UNL1        0.0207
      2 C         138.9700  139.3105  167.4691 C.3     1  UNL1        0.0274
      3 C         139.4694  140.5094  168.2197 C.ar    1  UNL1       -0.0258
      4 C         139.1030  140.6975  169.6620 C.ar    1  UNL1       -0.0046
      5 C         139.6024  141.8964  170.4125 C.ar    1  UNL1       -0.0003
      6 C         140.4682  142.9072  169.7206 C.ar    1  UNL1       -0.0003
      7 C         140.8346  142.7191  168.2783 C.ar    1  UNL1       -0.0043
      8 C         140.3352  141.5202  167.5278 C.ar    1  UNL1       -0.0224
      9 C         140.7016  141.3321  166.0854 C.3     1  UNL1        0.0443
     10 C         140.2022  140.1332  165.3350 C.3     1  UNL1        0.0104
     11 C         141.5674  142.3429  165.3936 C.ar    1  UNL1       -0.0175
     12 C         143.0603  142.2597  165.5141 C.ar    1  UNL1       -0.0030
     13 C         143.9260  143.2705  164.8222 C.ar    1  UNL1        0.0119
     14 C         143.2989  144.3646  164.0098 C.ar    1  UNL1        0.0682
     15 CL        144.1647  145.3754  163.3180 Cl      1  UNL1       -0.0814
     16 C         141.8061  144.4477  163.8893 C.ar    1  UNL1        0.0679
     17 CL        141.1790  145.5418  163.0770 Cl      1  UNL1       -0.0814
     18 C         140.9404  143.4369  164.5812 C.ar    1  UNL1        0.0083
     19 C         138.8370  137.9235  165.2763 C.3     1  UNL1        0.0689
     20 C         138.4559  138.0742  162.7108 C.3     1  UNL1        0.0859
     21 N         139.3080  137.6657  163.8757 N.3     1  UNL1       -0.2963
     22 H         140.2003  138.1487  163.7715 H       1  UNL1        0.1233
@<TRIPOS>BOND
     1    20    21    1
     2    21    19    1
     3     1    19    1
     4     1     2    1
     5     2     3    1
     6     3     4   ar
     7     4     5   ar
     8     5     6   ar
     9     6     7   ar
    10     7     8   ar
    11     8     9    1
    12     9    11    1
    13    11    12   ar
    14    12    13   ar
    15    13    14   ar
    16    14    15    1
    17    14    16   ar
    18    16    17    1
    19    16    18   ar
    20     9    10    1
    21    10     1    1
    22     8     3   ar
    23    18    11   ar
    24    21    22    1
@<TRIPOS>MOLECULE
*****
 22 24 0 0 0
SMALL
GASTEIGER

@<TRIPOS>ATOM
      1 C         138.6360  139.2551  163.6363 C.3     1  UNL1        0.0207
      2 C         138.1081  140.4868  162.9625 C.3     1  UNL1        0.0274
      3 C         138.2335  141.8218  163.6350 C.ar    1  UNL1       -0.0258
      4 C         137.7057  143.0536  162.9612 C.ar    1  UNL1       -0.0046
      5 C         137.8311  144.3885  163.6336 C.ar    1  UNL1       -0.0003
      6 C         138.4845  144.4916  164.9799 C.ar    1  UNL1       -0.0003
      7 C         139.0124  143.2598  165.6537 C.ar    1  UNL1       -0.0043
      8 C         138.8869  141.9249  164.9813 C.ar    1  UNL1       -0.0224
      9 C         139.4148  140.6931  165.6551 C.3     1  UNL1        0.0443
     10 C         139.2893  139.3582  164.9826 C.3     1  UNL1        0.0104
     11 C         140.0682  140.7962  167.0014 C.ar    1  UNL1       -0.0175
     12 C         139.4251  140.1599  168.1979 C.ar    1  UNL1       -0.0030
     13 C         140.0785  140.2630  169.5441 C.ar    1  UNL1        0.0119
     14 C         141.3750  141.0025  169.6939 C.ar    1  UNL1        0.0682
     15 CL        142.0284  141.1057  171.0402 Cl      1  UNL1       -0.0814
     16 C         142.0180  141.6388  168.4974 C.ar    1  UNL1        0.0679
     17 CL        143.3145  142.3783  168.6472 Cl      1  UNL1       -0.0814
     18 C         141.3646  141.5357  167.1512 C.ar    1  UNL1        0.0083
     19 C         138.5105  137.9201  162.9639 C.3     1  UNL1        0.0689
     20 C         140.8627  137.9458  161.8611 C.3     1  UNL1        0.0859
     21 N         139.4110  137.5707  161.8163 N.3     1  UNL1       -0.2963
     22 H         139.3719  136.5571  161.7093 H       1  UNL1        0.1233
@<TRIPOS>BOND
     1    20    21    1
     2    21    19    1
     3     1    19    1
     4     1     2    1
     5     2     3    1
     6     3     4   ar
     7     4     5   ar
     8     5     6   ar
     9     6     7   ar
    10     7     8   ar
    11     8     9    1
    12     9    11    1
    13    11    12   ar
    14    12    13   ar
    15    13    14   ar
    16    14    15    1
    17    14    16   ar
    18    16    17    1
    19    16    18   ar
    20     9    10    1
    21    10     1    1
    22     8     3   ar
    23    18    11   ar
    24    21    22    1
@<TRIPOS>MOLECULE
*****
 22 24 0 0 0
SMALL
GASTEIGER

@<TRIPOS>ATOM
      1 C         141.9045  144.3114  163.8883 C.3     1  UNL1        0.0207
      2 C         143.3081  143.8583  163.6149 C.3     1  UNL1        0.0274
      3 C         143.7216  142.4553  163.9479 C.ar    1  UNL1       -0.0258
      4 C         145.1251  142.0022  163.6746 C.ar    1  UNL1       -0.0046
      5 C         145.5385  140.5993  164.0076 C.ar    1  UNL1       -0.0003
      6 C         144.5484  139.6496  164.6139 C.ar    1  UNL1       -0.0003
      7 C         143.1449  140.1027  164.8873 C.ar    1  UNL1       -0.0043
      8 C         142.7315  141.5056  164.5543 C.ar    1  UNL1       -0.0224
      9 C         141.3279  141.9588  164.8276 C.3     1  UNL1        0.0443
     10 C         140.9144  143.3617  164.4946 C.3     1  UNL1        0.0104
     11 C         140.3378  141.0090  165.4339 C.ar    1  UNL1       -0.0175
     12 C         139.4982  140.1352  164.5497 C.ar    1  UNL1       -0.0030
     13 C         138.5081  139.1854  165.1561 C.ar    1  UNL1        0.0119
     14 C         138.3576  139.1095  166.6466 C.ar    1  UNL1        0.0682
     15 CL        137.3675  138.1597  167.2530 Cl      1  UNL1       -0.0814
     16 C         139.1971  139.9832  167.5307 C.ar    1  UNL1        0.0679
     17 CL        139.0465  139.9073  169.0213 Cl      1  UNL1       -0.0814
     18 C         140.1872  140.9330  166.9244 C.ar    1  UNL1        0.0083
     19 C         141.4910  145.7144  163.5553 C.3     1  UNL1        0.0689
     20 C         140.2818  145.5799  161.2598 C.3     1  UNL1        0.0859
     21 N         140.2751  145.9576  162.7114 N.3     1  UNL1       -0.2963
     22 H         139.5079  145.4444  163.1456 H       1  UNL1        0.1233
@<TRIPOS>BOND
     1    20    21    1
     2    21    19    1
     3     1    19    1
     4     1     2    1
     5     2     3    1
     6     3     4   ar
     7     4     5   ar
     8     5     6   ar
     9     6     7   ar
    10     7     8   ar
    11     8     9    1
    12     9    11    1
    13    11    12   ar
    14    12    13   ar
    15    13    14   ar
    16    14    15    1
    17    14    16   ar
    18    16    17    1
    19    16    18   ar
    20     9    10    1
    21    10     1    1
    22     8     3   ar
    23    18    11   ar
    24    21    22    1
@<TRIPOS>MOLECULE
*****
 22 24 0 0 0
SMALL
GASTEIGER

@<TRIPOS>ATOM
      1 C         140.5738  142.2584  168.7377 C.3     1  UNL1        0.0207
      2 C         139.9637  140.8891  168.6867 C.3     1  UNL1        0.0274
      3 C         139.4060  140.3641  167.3969 C.ar    1  UNL1       -0.0258
      4 C         138.7959  138.9947  167.3459 C.ar    1  UNL1       -0.0046
      5 C         138.2382  138.4698  166.0562 C.ar    1  UNL1       -0.0003
      6 C         138.2906  139.3142  164.8176 C.ar    1  UNL1       -0.0003
      7 C         138.9006  140.6835  164.8686 C.ar    1  UNL1       -0.0043
      8 C         139.4583  141.2085  166.1583 C.ar    1  UNL1       -0.0224
      9 C         140.0684  142.5779  166.2094 C.3     1  UNL1        0.0443
     10 C         140.6261  143.1028  167.4991 C.3     1  UNL1        0.0104
     11 C         140.1208  143.4223  164.9707 C.ar    1  UNL1       -0.0175
     12 C         138.9270  144.2358  164.5666 C.ar    1  UNL1       -0.0030
     13 C         138.9793  145.0802  163.3280 C.ar    1  UNL1        0.0119
     14 C         140.2255  145.1111  162.4935 C.ar    1  UNL1        0.0682
     15 CL        140.2778  145.9555  161.2548 Cl      1  UNL1       -0.0814
     16 C         141.4191  144.2977  162.8976 C.ar    1  UNL1        0.0679
     17 CL        142.6653  144.3286  162.0631 Cl      1  UNL1       -0.0814
     18 C         141.3668  143.4533  164.1363 C.ar    1  UNL1        0.0083
     19 C         141.1315  142.7834  170.0275 C.3     1  UNL1        0.0689
     20 C         143.6318  142.2481  169.5674 C.3     1  UNL1        0.0859
     21 N         142.5796  143.1640  170.1186 N.3     1  UNL1       -0.2963
     22 H         142.6810  144.0551  169.6329 H       1  UNL1        0.1233
@<TRIPOS>BOND
     1    20    21    1
     2    21    19    1
     3     1    19    1
     4     1     2    1
     5     2     3    1
     6     3     4   ar
     7     4     5   ar
     8     5     6   ar
     9     6     7   ar
    10     7     8   ar
    11     8     9    1
    12     9    11    1
    13    11    12   ar
    14    12    13   ar
    15    13    14   ar
    16    14    15    1
    17    14    16   ar
    18    16    17    1
    19    16    18   ar
    20     9    10    1
    21    10     1    1
    22     8     3   ar
    23    18    11   ar
    24    21    22    1
