@<TRIPOS>MOLECULE
*****
 31 35 0 0 0
SMALL
GASTEIGER

@<TRIPOS>ATOM
      1 O         137.6570  140.3966  162.7424 O.2     1  UNL1       -0.2749
      2 C         138.5893  141.2682  163.5307 C.2     1  UNL1        0.2250
      3 N         138.9326  140.9112  164.9466 N.am    1  UNL1       -0.2750
      4 C         138.3436  139.6827  165.5742 C.3     1  UNL1        0.1000
      5 C         138.6869  139.3258  166.9901 C.3     1  UNL1        0.0670
      6 C         139.6192  140.1973  167.7783 C.ar    1  UNL1        0.0583
      7 N         139.9624  139.8403  169.1943 N.ar    1  UNL1       -0.2484
      8 C         140.8947  140.7119  169.9825 C.ar    1  UNL1        0.1023
      9 C         141.4837  141.9404  169.3548 C.ar    1  UNL1        0.0902
     10 C         141.1404  142.2973  167.9389 C.ar    1  UNL1        0.0040
     11 C         140.2081  141.4258  167.1507 C.ar    1  UNL1        0.0113
     12 C         139.8649  141.7827  165.7348 C.3     1  UNL1        0.1213
     13 C         139.1783  142.4966  162.9030 C.3     1  UNL1        0.0704
     14 C         137.8464  142.8667  163.4854 C.3     1  UNL1        0.0087
     15 C         137.6123  144.3240  163.2176 C.3     1  UNL1        0.0005
     16 C         138.7994  144.8545  162.4698 C.3     1  UNL1        0.0005
     17 C         139.7673  143.7251  162.2754 C.3     1  UNL1        0.0095
     18 C         141.0991  143.3550  161.6931 C.3     1  UNL1        0.0162
     19 C         141.3333  141.8978  161.9608 C.3     1  UNL1        0.0544
     20 C         140.1462  141.3673  162.7086 C.3     1  UNL1        0.0243
     21 N         142.5424  141.1095  161.5524 N.3     1  UNL1       -0.2996
     22 H         142.8905  141.5296  160.6906 H       1  UNL1        0.1232
     23 C         143.7135  140.9965  162.4828 C.3     1  UNL1        0.0539
     24 C         144.8288  141.9899  162.6211 C.3     1  UNL1        0.0157
     25 C         145.7795  141.4776  163.6621 C.3     1  UNL1        0.0014
     26 C         145.2517  140.1675  164.1672 C.3     1  UNL1        0.0014
     27 C         143.9749  139.8702  163.4383 C.3     1  UNL1        0.0157
     28 C         142.4160  142.8119  170.1430 C.3     1  UNL1        0.4200
     29 F         143.3482  143.6834  170.9313 F       1  UNL1       -0.1658
     30 F         143.4036  141.6856  170.2202 F       1  UNL1       -0.1658
     31 F         141.4283  143.9382  170.0659 F       1  UNL1       -0.1658
@<TRIPOS>BOND
     1     1     2    2
     2     2     3   am
     3     3     4    1
     4     4     5    1
     5     5     6    1
     6     6     7   ar
     7     7     8   ar
     8     8     9   ar
     9     9    28    1
    10    28    29    1
    11    28    30    1
    12    28    31    1
    13     9    10   ar
    14    10    11   ar
    15    11    12    1
    16    13     2    1
    17    13    14    1
    18    14    15    1
    19    15    16    1
    20    17    16    1
    21    17    18    1
    22    18    19    1
    23    19    21    1
    24    21    23    1
    25    23    24    1
    26    24    25    1
    27    25    26    1
    28    26    27    1
    29    19    20    1
    30    12     3    1
    31    17    13    1
    32    27    23    1
    33    11     6   ar
    34    20    13    1
    35    21    22    1
@<TRIPOS>MOLECULE
*****
 31 35 0 0 0
SMALL
GASTEIGER

@<TRIPOS>ATOM
      1 O         143.0964  138.9944  167.5934 O.2     1  UNL1       -0.2749
      2 C         142.0630  139.9260  167.0328 C.2     1  UNL1        0.2250
      3 N         142.4359  140.8965  165.9515 N.am    1  UNL1       -0.2750
      4 C         143.8421  140.9354  165.4308 C.3     1  UNL1        0.1000
      5 C         144.2149  141.9058  164.3496 C.3     1  UNL1        0.0670
      6 C         143.1815  142.8375  163.7890 C.ar    1  UNL1        0.0583
      7 N         143.5544  143.8080  162.7077 N.ar    1  UNL1       -0.2484
      8 C         142.5210  144.7396  162.1471 C.ar    1  UNL1        0.1023
      9 C         141.1148  144.7007  162.6678 C.ar    1  UNL1        0.0902
     10 C         140.7420  143.7302  163.7491 C.ar    1  UNL1        0.0040
     11 C         141.7754  142.7986  164.3097 C.ar    1  UNL1        0.0113
     12 C         141.4025  141.8281  165.3909 C.3     1  UNL1        0.1213
     13 C         140.6569  139.8872  167.5535 C.3     1  UNL1        0.0704
     14 C         141.5214  140.5246  168.6005 C.3     1  UNL1        0.0087
     15 C         140.6495  140.8797  169.7683 C.3     1  UNL1        0.0005
     16 C         139.2461  140.4618  169.4430 C.3     1  UNL1        0.0005
     17 C         139.2506  139.8483  168.0742 C.3     1  UNL1        0.0095
     18 C         138.3861  139.2109  167.0272 C.3     1  UNL1        0.0162
     19 C         139.2580  138.8558  165.8594 C.3     1  UNL1        0.0544
     20 C         140.6614  139.2737  166.1847 C.3     1  UNL1        0.0243
     21 N         138.8058  138.1981  164.5893 N.3     1  UNL1       -0.2996
     22 H         138.0116  137.6056  164.8311 H       1  UNL1        0.1232
     23 C         138.3804  139.0368  163.4207 C.3     1  UNL1        0.0539
     24 C         138.2478  140.5309  163.4095 C.3     1  UNL1        0.0157
     25 C         137.7983  140.9462  162.0401 C.3     1  UNL1        0.0014
     26 C         137.6531  139.7086  161.2048 C.3     1  UNL1        0.0014
     27 C         138.0128  138.5286  162.0581 C.3     1  UNL1        0.0157
     28 C         140.0814  145.6323  162.1073 C.3     1  UNL1        0.4200
     29 F         139.0481  146.5640  161.5467 F       1  UNL1       -0.1658
     30 F         140.8787  145.7557  160.8427 F       1  UNL1       -0.1658
     31 F         139.2842  145.5090  163.3718 F       1  UNL1       -0.1658
@<TRIPOS>BOND
     1     1     2    2
     2     2     3   am
     3     3     4    1
     4     4     5    1
     5     5     6    1
     6     6     7   ar
     7     7     8   ar
     8     8     9   ar
     9     9    28    1
    10    28    29    1
    11    28    30    1
    12    28    31    1
    13     9    10   ar
    14    10    11   ar
    15    11    12    1
    16    13     2    1
    17    13    14    1
    18    14    15    1
    19    15    16    1
    20    17    16    1
    21    17    18    1
    22    18    19    1
    23    19    21    1
    24    21    23    1
    25    23    24    1
    26    24    25    1
    27    25    26    1
    28    26    27    1
    29    19    20    1
    30    12     3    1
    31    17    13    1
    32    27    23    1
    33    11     6   ar
    34    20    13    1
    35    21    22    1
@<TRIPOS>MOLECULE
*****
 31 35 0 0 0
SMALL
GASTEIGER

@<TRIPOS>ATOM
      1 O         143.4274  138.8108  167.9434 O.2     1  UNL1       -0.2749
      2 C         142.5932  140.0023  167.5767 C.2     1  UNL1        0.2250
      3 N         142.7529  140.6439  166.2302 N.am    1  UNL1       -0.2750
      4 C         143.7467  140.0939  165.2505 C.3     1  UNL1        0.1000
      5 C         143.9063  140.7355  163.9041 C.3     1  UNL1        0.0670
      6 C         143.0722  141.9270  163.5374 C.ar    1  UNL1        0.0583
      7 N         143.2318  142.5686  162.1909 N.ar    1  UNL1       -0.2484
      8 C         142.3977  143.7601  161.8242 C.ar    1  UNL1        0.1023
      9 C         141.4039  144.3101  162.8041 C.ar    1  UNL1        0.0902
     10 C         141.2442  143.6685  164.1505 C.ar    1  UNL1        0.0040
     11 C         142.0784  142.4770  164.5172 C.ar    1  UNL1        0.0113
     12 C         141.9188  141.8354  165.8636 C.3     1  UNL1        0.1213
     13 C         141.5995  140.5523  168.5565 C.3     1  UNL1        0.0704
     14 C         142.9634  141.0232  168.9660 C.3     1  UNL1        0.0087
     15 C         142.8127  141.8642  170.1989 C.3     1  UNL1        0.0005
     16 C         141.3555  141.9131  170.5513 C.3     1  UNL1        0.0005
     17 C         140.6057  141.1023  169.5363 C.3     1  UNL1        0.0095
     18 C         139.2417  140.6314  169.1267 C.3     1  UNL1        0.0162
     19 C         139.3925  139.7903  167.8938 C.3     1  UNL1        0.0544
     20 C         140.8496  139.7415  167.5414 C.3     1  UNL1        0.0243
     21 N         138.2811  139.1165  167.1449 N.3     1  UNL1       -0.2996
     22 H         137.4524  139.6999  167.2600 H       1  UNL1        0.1232
     23 C         138.4214  138.8485  165.6757 C.3     1  UNL1        0.0539
     24 C         138.8426  137.5507  165.0525 C.3     1  UNL1        0.0157
     25 C         138.8466  137.7314  163.5634 C.3     1  UNL1        0.0014
     26 C         138.4278  139.1408  163.2664 C.3     1  UNL1        0.0014
     27 C         138.1650  139.8312  164.5719 C.3     1  UNL1        0.0157
     28 C         140.5697  145.5016  162.4374 C.3     1  UNL1        0.4200
     29 F         139.7356  146.6931  162.0707 F       1  UNL1       -0.1658
     30 F         141.2070  145.5299  161.0798 F       1  UNL1       -0.1658
     31 F         139.9324  145.4732  163.7950 F       1  UNL1       -0.1658
@<TRIPOS>BOND
     1     1     2    2
     2     2     3   am
     3     3     4    1
     4     4     5    1
     5     5     6    1
     6     6     7   ar
     7     7     8   ar
     8     8     9   ar
     9     9    28    1
    10    28    29    1
    11    28    30    1
    12    28    31    1
    13     9    10   ar
    14    10    11   ar
    15    11    12    1
    16    13     2    1
    17    13    14    1
    18    14    15    1
    19    15    16    1
    20    17    16    1
    21    17    18    1
    22    18    19    1
    23    19    21    1
    24    21    23    1
    25    23    24    1
    26    24    25    1
    27    25    26    1
    28    26    27    1
    29    19    20    1
    30    12     3    1
    31    17    13    1
    32    27    23    1
    33    11     6   ar
    34    20    13    1
    35    21    22    1
@<TRIPOS>MOLECULE
*****
 31 35 0 0 0
SMALL
GASTEIGER

@<TRIPOS>ATOM
      1 O         139.6332  137.6815  162.1773 O.2     1  UNL1       -0.2749
      2 C         140.3575  138.7436  162.9501 C.2     1  UNL1        0.2250
      3 N         139.9790  139.0248  164.3741 N.am    1  UNL1       -0.2750
      4 C         138.8762  138.2439  165.0253 C.3     1  UNL1        0.1000
      5 C         138.4978  138.5251  166.4492 C.3     1  UNL1        0.0670
      6 C         139.2221  139.5873  167.2220 C.ar    1  UNL1        0.0583
      7 N         138.8436  139.8685  168.6460 N.ar    1  UNL1       -0.2484
      8 C         139.5679  140.9306  169.4188 C.ar    1  UNL1        0.1023
      9 C         140.6708  141.7115  168.7676 C.ar    1  UNL1        0.0902
     10 C         141.0492  141.4303  167.3437 C.ar    1  UNL1        0.0040
     11 C         140.3249  140.3682  166.5709 C.ar    1  UNL1        0.0113
     12 C         140.7033  140.0870  165.1469 C.3     1  UNL1        0.1213
     13 C         141.4603  139.5245  162.2990 C.3     1  UNL1        0.0704
     14 C         141.9600  138.1313  162.5420 C.3     1  UNL1        0.0087
     15 C         143.3716  138.0511  162.0411 C.3     1  UNL1        0.0005
     16 C         143.7443  139.3948  161.4885 C.3     1  UNL1        0.0005
     17 C         142.5631  140.3054  161.6478 C.3     1  UNL1        0.0095
     18 C         142.0634  141.6987  161.4047 C.3     1  UNL1        0.0162
     19 C         140.6518  141.7789  161.9057 C.3     1  UNL1        0.0544
     20 C         140.2791  140.4352  162.4583 C.3     1  UNL1        0.0243
     21 N         139.7681  142.9902  161.8616 N.3     1  UNL1       -0.2996
     22 H         138.9644  142.7474  161.2825 H       1  UNL1        0.1232
     23 C         139.2255  143.5694  163.1344 C.3     1  UNL1        0.0539
     24 C         140.0264  143.9327  164.3496 C.3     1  UNL1        0.0157
     25 C         139.0827  144.4748  165.3818 C.3     1  UNL1        0.0014
     26 C         137.6984  144.4466  164.8045 C.3     1  UNL1        0.0014
     27 C         137.7868  143.8870  163.4156 C.3     1  UNL1        0.0157
     28 C         141.3951  142.7737  169.5404 C.3     1  UNL1        0.4200
     29 F         142.1194  143.8358  170.3132 F       1  UNL1       -0.1658
     30 F         142.4669  141.7856  169.8939 F       1  UNL1       -0.1658
     31 F         140.3233  143.7618  169.1869 F       1  UNL1       -0.1658
@<TRIPOS>BOND
     1     1     2    2
     2     2     3   am
     3     3     4    1
     4     4     5    1
     5     5     6    1
     6     6     7   ar
     7     7     8   ar
     8     8     9   ar
     9     9    28    1
    10    28    29    1
    11    28    30    1
    12    28    31    1
    13     9    10   ar
    14    10    11   ar
    15    11    12    1
    16    13     2    1
    17    13    14    1
    18    14    15    1
    19    15    16    1
    20    17    16    1
    21    17    18    1
    22    18    19    1
    23    19    21    1
    24    21    23    1
    25    23    24    1
    26    24    25    1
    27    25    26    1
    28    26    27    1
    29    19    20    1
    30    12     3    1
    31    17    13    1
    32    27    23    1
    33    11     6   ar
    34    20    13    1
    35    21    22    1
@<TRIPOS>MOLECULE
*****
 31 35 0 0 0
SMALL
GASTEIGER

@<TRIPOS>ATOM
      1 O         142.4765  137.6865  162.5395 O.2     1  UNL1       -0.2749
      2 C         141.6189  138.6241  163.3367 C.2     1  UNL1        0.2250
      3 N         141.9375  138.8897  164.7783 N.am    1  UNL1       -0.2750
      4 C         143.1137  138.2178  165.4226 C.3     1  UNL1        0.1000
      5 C         143.4323  138.4834  166.8640 C.3     1  UNL1        0.0670
      6 C         142.5747  139.4210  167.6612 C.ar    1  UNL1        0.0583
      7 N         142.8933  139.6866  169.1028 N.ar    1  UNL1       -0.2484
      8 C         142.0357  140.6241  169.9000 C.ar    1  UNL1        0.1023
      9 C         140.8595  141.2961  169.2556 C.ar    1  UNL1        0.0902
     10 C         140.5409  141.0304  167.8142 C.ar    1  UNL1        0.0040
     11 C         141.3985  140.0929  167.0170 C.ar    1  UNL1        0.0113
     12 C         141.0800  139.8272  165.5755 C.3     1  UNL1        0.1213
     13 C         140.4428  139.2960  162.6925 C.3     1  UNL1        0.0704
     14 C         139.9642  138.0153  163.3095 C.3     1  UNL1        0.0087
     15 C         138.4923  137.8956  163.0466 C.3     1  UNL1        0.0005
     16 C         138.0611  139.1024  162.2670 C.3     1  UNL1        0.0005
     17 C         139.2665  139.9679  162.0482 C.3     1  UNL1        0.0095
     18 C         139.7450  141.2486  161.4311 C.3     1  UNL1        0.0162
     19 C         141.2170  141.3682  161.6940 C.3     1  UNL1        0.0544
     20 C         141.6482  140.1614  162.4736 C.3     1  UNL1        0.0243
     21 N         142.1023  142.4966  161.2545 N.3     1  UNL1       -0.2996
     22 H         141.6443  142.9364  160.4563 H       1  UNL1        0.1232
     23 C         142.4488  143.5957  162.2146 C.3     1  UNL1        0.0539
     24 C         143.8310  144.0791  162.5399 C.3     1  UNL1        0.0157
     25 C         143.7104  145.1866  163.5443 C.3     1  UNL1        0.0014
     26 C         142.2536  145.3877  163.8397 C.3     1  UNL1        0.0014
     27 C         141.4739  144.4045  163.0179 C.3     1  UNL1        0.0157
     28 C         140.0019  142.2336  170.0528 C.3     1  UNL1        0.4200
     29 F         139.1443  143.1712  170.8500 F       1  UNL1       -0.1658
     30 F         141.1008  143.2544  170.0345 F       1  UNL1       -0.1658
     31 F         138.9030  141.2128  170.0712 F       1  UNL1       -0.1658
@<TRIPOS>BOND
     1     1     2    2
     2     2     3   am
     3     3     4    1
     4     4     5    1
     5     5     6    1
     6     6     7   ar
     7     7     8   ar
     8     8     9   ar
     9     9    28    1
    10    28    29    1
    11    28    30    1
    12    28    31    1
    13     9    10   ar
    14    10    11   ar
    15    11    12    1
    16    13     2    1
    17    13    14    1
    18    14    15    1
    19    15    16    1
    20    17    16    1
    21    17    18    1
    22    18    19    1
    23    19    21    1
    24    21    23    1
    25    23    24    1
    26    24    25    1
    27    25    26    1
    28    26    27    1
    29    19    20    1
    30    12     3    1
    31    17    13    1
    32    27    23    1
    33    11     6   ar
    34    20    13    1
    35    21    22    1
@<TRIPOS>MOLECULE
*****
 31 35 0 0 0
SMALL
GASTEIGER

@<TRIPOS>ATOM
      1 O         142.8775  138.2733  166.3678 O.2     1  UNL1       -0.2749
      2 C         141.8752  139.1761  165.7118 C.2     1  UNL1        0.2250
      3 N         142.3150  140.4856  165.1269 N.am    1  UNL1       -0.2750
      4 C         143.7570  140.8921  165.1981 C.3     1  UNL1        0.1000
      5 C         144.1968  142.2015  164.6132 C.3     1  UNL1        0.0670
      6 C         143.1945  143.1043  163.9572 C.ar    1  UNL1        0.0583
      7 N         143.6343  144.4138  163.3723 N.ar    1  UNL1       -0.2484
      8 C         142.6320  145.3166  162.7163 C.ar    1  UNL1        0.1023
      9 C         141.1898  144.9099  162.6452 C.ar    1  UNL1        0.0902
     10 C         140.7501  143.6005  163.2301 C.ar    1  UNL1        0.0040
     11 C         141.7524  142.6977  163.8861 C.ar    1  UNL1        0.0113
     12 C         141.3127  141.3884  164.4710 C.3     1  UNL1        0.1213
     13 C         140.4331  138.7696  165.6407 C.3     1  UNL1        0.0704
     14 C         141.1149  138.2786  164.3981 C.3     1  UNL1        0.0087
     15 C         140.0942  137.5686  163.5590 C.3     1  UNL1        0.0005
     16 C         138.7815  137.6207  164.2830 C.3     1  UNL1        0.0005
     17 C         138.9910  138.3630  165.5696 C.3     1  UNL1        0.0095
     18 C         138.3092  138.8539  166.8122 C.3     1  UNL1        0.0162
     19 C         139.3299  139.5639  167.6513 C.3     1  UNL1        0.0544
     20 C         140.6425  139.5118  166.9273 C.3     1  UNL1        0.0243
     21 N         139.0815  140.2122  168.9810 N.3     1  UNL1       -0.2996
     22 H         138.9688  139.4589  169.6594 H       1  UNL1        0.1232
     23 C         140.0917  141.1623  169.5526 C.3     1  UNL1        0.0539
     24 C         141.0274  140.8754  170.6894 C.3     1  UNL1        0.0157
     25 C         141.8576  142.1018  170.9272 C.3     1  UNL1        0.0014
     26 C         141.4351  143.1467  169.9373 C.3     1  UNL1        0.0014
     27 C         140.3437  142.5660  169.0878 C.3     1  UNL1        0.0157
     28 C         140.1875  145.8127  161.9893 C.3     1  UNL1        0.4200
     29 F         139.1852  146.7155  161.3333 F       1  UNL1       -0.1658
     30 F         139.3449  145.7785  163.2297 F       1  UNL1       -0.1658
     31 F         141.0301  145.8469  160.7488 F       1  UNL1       -0.1658
@<TRIPOS>BOND
     1     1     2    2
     2     2     3   am
     3     3     4    1
     4     4     5    1
     5     5     6    1
     6     6     7   ar
     7     7     8   ar
     8     8     9   ar
     9     9    28    1
    10    28    29    1
    11    28    30    1
    12    28    31    1
    13     9    10   ar
    14    10    11   ar
    15    11    12    1
    16    13     2    1
    17    13    14    1
    18    14    15    1
    19    15    16    1
    20    17    16    1
    21    17    18    1
    22    18    19    1
    23    19    21    1
    24    21    23    1
    25    23    24    1
    26    24    25    1
    27    25    26    1
    28    26    27    1
    29    19    20    1
    30    12     3    1
    31    17    13    1
    32    27    23    1
    33    11     6   ar
    34    20    13    1
    35    21    22    1
@<TRIPOS>MOLECULE
*****
 31 35 0 0 0
SMALL
GASTEIGER

@<TRIPOS>ATOM
      1 O         144.2272  139.1854  162.4264 O.2     1  UNL1       -0.2749
      2 C         143.3651  140.1181  163.2244 C.2     1  UNL1        0.2250
      3 N         143.1602  139.8799  164.6912 N.am    1  UNL1       -0.2750
      4 C         143.8174  138.7091  165.3598 C.3     1  UNL1        0.1000
      5 C         143.6125  138.4709  166.8265 C.3     1  UNL1        0.0670
      6 C         142.7504  139.4036  167.6246 C.ar    1  UNL1        0.0583
      7 N         142.5455  139.1654  169.0914 N.ar    1  UNL1       -0.2484
      8 C         141.6834  140.0981  169.8894 C.ar    1  UNL1        0.1023
      9 C         141.0261  141.2689  169.2206 C.ar    1  UNL1        0.0902
     10 C         141.2310  141.5071  167.7539 C.ar    1  UNL1        0.0040
     11 C         142.0931  140.5744  166.9559 C.ar    1  UNL1        0.0113
     12 C         142.2980  140.8125  165.4892 C.3     1  UNL1        0.1213
     13 C         142.7078  141.2889  162.5557 C.3     1  UNL1        0.0704
     14 C         144.1896  141.5215  162.5462 C.3     1  UNL1        0.0087
     15 C         144.4482  142.8360  161.8716 C.3     1  UNL1        0.0005
     16 C         143.1262  143.4159  161.4642 C.3     1  UNL1        0.0005
     17 C         142.0506  142.4598  161.8870 C.3     1  UNL1        0.0095
     18 C         140.5688  142.2272  161.8965 C.3     1  UNL1        0.0162
     19 C         140.3102  140.9127  162.5711 C.3     1  UNL1        0.0544
     20 C         141.6322  140.3328  162.9785 C.3     1  UNL1        0.0243
     21 N         138.9656  140.2877  162.7984 N.3     1  UNL1       -0.2996
     22 H         138.7803  139.6873  161.9949 H       1  UNL1        0.1232
     23 C         138.7215  139.4583  164.0241 C.3     1  UNL1        0.0539
     24 C         138.2179  139.9626  165.3440 C.3     1  UNL1        0.0157
     25 C         138.1234  138.7950  166.2809 C.3     1  UNL1        0.0014
     26 C         138.5686  137.5690  165.5399 C.3     1  UNL1        0.0014
     27 C         138.9382  137.9791  164.1452 C.3     1  UNL1        0.0157
     28 C         140.1640  142.2016  170.0187 C.3     1  UNL1        0.4200
     29 F         139.3018  143.1343  170.8167 F       1  UNL1       -0.1658
     30 F         141.1944  143.2814  169.8699 F       1  UNL1       -0.1658
     31 F         139.1335  141.1218  170.1674 F       1  UNL1       -0.1658
@<TRIPOS>BOND
     1     1     2    2
     2     2     3   am
     3     3     4    1
     4     4     5    1
     5     5     6    1
     6     6     7   ar
     7     7     8   ar
     8     8     9   ar
     9     9    28    1
    10    28    29    1
    11    28    30    1
    12    28    31    1
    13     9    10   ar
    14    10    11   ar
    15    11    12    1
    16    13     2    1
    17    13    14    1
    18    14    15    1
    19    15    16    1
    20    17    16    1
    21    17    18    1
    22    18    19    1
    23    19    21    1
    24    21    23    1
    25    23    24    1
    26    24    25    1
    27    25    26    1
    28    26    27    1
    29    19    20    1
    30    12     3    1
    31    17    13    1
    32    27    23    1
    33    11     6   ar
    34    20    13    1
    35    21    22    1
@<TRIPOS>MOLECULE
*****
 31 35 0 0 0
SMALL
GASTEIGER

@<TRIPOS>ATOM
      1 O         142.2134  142.2517  161.5960 O.2     1  UNL1       -0.2749
      2 C         141.3480  142.7090  162.7326 C.2     1  UNL1        0.2250
      3 N         141.7256  142.3729  164.1450 N.am    1  UNL1       -0.2750
      4 C         142.9684  141.5796  164.4205 C.3     1  UNL1        0.1000
      5 C         143.3459  141.2436  165.8328 C.3     1  UNL1        0.0670
      6 C         142.4805  141.7009  166.9695 C.ar    1  UNL1        0.0583
      7 N         142.8581  141.3648  168.3818 N.ar    1  UNL1       -0.2484
      8 C         141.9927  141.8221  169.5185 C.ar    1  UNL1        0.1023
      9 C         140.7498  142.6155  169.2429 C.ar    1  UNL1        0.0902
     10 C         140.3724  142.9515  167.8306 C.ar    1  UNL1        0.0040
     11 C         141.2377  142.4942  166.6939 C.ar    1  UNL1        0.0113
     12 C         140.8602  142.8302  165.2817 C.3     1  UNL1        0.1213
     13 C         140.1052  143.5023  162.4571 C.3     1  UNL1        0.0704
     14 C         141.2876  144.3875  162.1956 C.3     1  UNL1        0.0087
     15 C         140.7755  145.7279  161.7585 C.3     1  UNL1        0.0005
     16 C         139.2766  145.6712  161.7497 C.3     1  UNL1        0.0005
     17 C         138.8623  144.2957  162.1815 C.3     1  UNL1        0.0095
     18 C         137.6799  143.4105  162.4429 C.3     1  UNL1        0.0162
     19 C         138.1920  142.0701  162.8801 C.3     1  UNL1        0.0544
     20 C         139.6909  142.1269  162.8888 C.3     1  UNL1        0.0243
     21 N         137.3525  140.8816  163.2445 N.3     1  UNL1       -0.2996
     22 H         136.9617  140.5193  162.3748 H       1  UNL1        0.1232
     23 C         137.9713  139.7172  163.9594 C.3     1  UNL1        0.0539
     24 C         138.5629  138.4994  163.3137 C.3     1  UNL1        0.0157
     25 C         139.0644  137.5956  164.4007 C.3     1  UNL1        0.0014
     26 C         138.7826  138.2548  165.7184 C.3     1  UNL1        0.0014
     27 C         138.1070  139.5660  165.4456 C.3     1  UNL1        0.0157
     28 C         139.8845  143.0728  170.3796 C.3     1  UNL1        0.4200
     29 F         139.0192  143.5301  171.5163 F       1  UNL1       -0.1658
     30 F         140.4753  144.4476  170.2763 F       1  UNL1       -0.1658
     31 F         139.2937  141.6979  170.4829 F       1  UNL1       -0.1658
@<TRIPOS>BOND
     1     1     2    2
     2     2     3   am
     3     3     4    1
     4     4     5    1
     5     5     6    1
     6     6     7   ar
     7     7     8   ar
     8     8     9   ar
     9     9    28    1
    10    28    29    1
    11    28    30    1
    12    28    31    1
    13     9    10   ar
    14    10    11   ar
    15    11    12    1
    16    13     2    1
    17    13    14    1
    18    14    15    1
    19    15    16    1
    20    17    16    1
    21    17    18    1
    22    18    19    1
    23    19    21    1
    24    21    23    1
    25    23    24    1
    26    24    25    1
    27    25    26    1
    28    26    27    1
    29    19    20    1
    30    12     3    1
    31    17    13    1
    32    27    23    1
    33    11     6   ar
    34    20    13    1
    35    21    22    1
@<TRIPOS>MOLECULE
*****
 31 35 0 0 0
SMALL
GASTEIGER

@<TRIPOS>ATOM
      1 O         142.5129  138.7738  167.2168 O.2     1  UNL1       -0.2749
      2 C         141.6160  139.5125  166.2682 C.2     1  UNL1        0.2250
      3 N         142.0296  140.8520  165.7344 N.am    1  UNL1       -0.2750
      4 C         143.3400  141.4526  166.1492 C.3     1  UNL1        0.1000
      5 C         143.7534  142.7920  165.6154 C.3     1  UNL1        0.0670
      6 C         142.8566  143.5308  164.6668 C.ar    1  UNL1        0.0583
      7 N         143.2701  144.8702  164.1329 N.ar    1  UNL1       -0.2484
      8 C         142.3733  145.6090  163.1843 C.ar    1  UNL1        0.1023
      9 C         141.0628  145.0082  162.7695 C.ar    1  UNL1        0.0902
     10 C         140.6493  143.6689  163.3033 C.ar    1  UNL1        0.0040
     11 C         141.5462  142.9301  164.2520 C.ar    1  UNL1        0.0113
     12 C         141.1327  141.5907  164.7858 C.3     1  UNL1        0.1213
     13 C         140.3057  138.9119  165.8534 C.3     1  UNL1        0.0704
     14 C         140.0946  139.6335  167.1514 C.3     1  UNL1        0.0087
     15 C         138.6537  139.4788  167.5388 C.3     1  UNL1        0.0005
     16 C         137.9743  138.6616  166.4802 C.3     1  UNL1        0.0005
     17 C         138.9952  138.3112  165.4386 C.3     1  UNL1        0.0095
     18 C         139.2063  137.5896  164.1407 C.3     1  UNL1        0.0162
     19 C         140.6471  137.7442  163.7533 C.3     1  UNL1        0.0544
     20 C         141.3265  138.5614  164.8118 C.3     1  UNL1        0.0243
     21 N         141.2948  137.1806  162.5232 N.3     1  UNL1       -0.2996
     22 H         140.5486  136.7800  161.9548 H       1  UNL1        0.1232
     23 C         142.0949  138.0727  161.6211 C.3     1  UNL1        0.0539
     24 C         143.4922  137.8155  161.1401 C.3     1  UNL1        0.0157
     25 C         143.8992  138.9625  160.2633 C.3     1  UNL1        0.0014
     26 C         142.7533  139.9286  160.2025 C.3     1  UNL1        0.0014
     27 C         141.6382  139.3787  161.0417 C.3     1  UNL1        0.0157
     28 C         140.1659  145.7470  161.8209 C.3     1  UNL1        0.4200
     29 F         139.2691  146.4857  160.8723 F       1  UNL1       -0.1658
     30 F         139.1288  145.8702  162.8975 F       1  UNL1       -0.1658
     31 F         141.2031  145.6237  160.7443 F       1  UNL1       -0.1658
@<TRIPOS>BOND
     1     1     2    2
     2     2     3   am
     3     3     4    1
     4     4     5    1
     5     5     6    1
     6     6     7   ar
     7     7     8   ar
     8     8     9   ar
     9     9    28    1
    10    28    29    1
    11    28    30    1
    12    28    31    1
    13     9    10   ar
    14    10    11   ar
    15    11    12    1
    16    13     2    1
    17    13    14    1
    18    14    15    1
    19    15    16    1
    20    17    16    1
    21    17    18    1
    22    18    19    1
    23    19    21    1
    24    21    23    1
    25    23    24    1
    26    24    25    1
    27    25    26    1
    28    26    27    1
    29    19    20    1
    30    12     3    1
    31    17    13    1
    32    27    23    1
    33    11     6   ar
    34    20    13    1
    35    21    22    1
