@<TRIPOS>MOLECULE
*****
 31 34 0 0 0
SMALL
GASTEIGER

@<TRIPOS>ATOM
      1 C         145.2293  139.3981  164.3153 C.3     1  UNL1        0.0337
      2 C         143.8983  139.6408  163.6675 C.3     1  UNL1        0.1467
      3 N         144.4886  138.8653  162.5272 N.am    1  UNL1       -0.2806
      4 C         143.4572  138.7803  161.4415 C.2     1  UNL1        0.3106
      5 O         143.6241  138.0931  160.1187 O.2     1  UNL1       -0.2521
      6 N         142.2295  139.5032  161.9107 N.am    1  UNL1       -0.2050
      7 C         142.5021  140.0350  163.2865 C.2     1  UNL1        0.2527
      8 O         141.5463  140.8227  164.1327 O.2     1  UNL1       -0.2723
      9 H         145.3940  138.4799  162.4968 H       1  UNL1        0.1516
     10 C         143.5863  140.3655  164.9433 C.ar    1  UNL1        0.0021
     11 C         143.8816  141.8311  165.0648 C.ar    1  UNL1       -0.0007
     12 C         143.5696  142.5557  166.3406 C.ar    1  UNL1        0.0190
     13 C         142.9624  141.8147  167.4948 C.ar    1  UNL1        0.0862
     14 C         142.6672  140.3491  167.3733 C.ar    1  UNL1        0.0190
     15 C         142.9791  139.6245  166.0975 C.ar    1  UNL1       -0.0007
     16 N         142.6504  142.5394  168.7706 N.ar    1  UNL1       -0.1886
     17 C         141.2921  142.9922  169.2179 C.ar    1  UNL1        0.2258
     18 N         141.4441  143.6711  170.5468 N.ar    1  UNL1       -0.1045
     19 N         142.8965  143.6380  170.9207 N.ar    1  UNL1       -0.0222
     20 N         143.6419  142.9385  169.8230 N.ar    1  UNL1       -0.0385
     21 C         140.9532  139.6657  161.1395 C.3     1  UNL1        0.1714
     22 C         139.7486  138.8487  161.5022 C.2     1  UNL1        0.1957
     23 O         139.0605  138.0220  160.4567 O.2     1  UNL1       -0.2894
     24 C         139.2321  138.8585  162.9104 C.ar    1  UNL1        0.0640
     25 C         139.3926  137.6444  163.7766 C.ar    1  UNL1        0.0075
     26 C         138.8761  137.6541  165.1848 C.ar    1  UNL1        0.0299
     27 C         138.1992  138.8779  165.7270 C.ar    1  UNL1        0.1424
     28 F         137.6827  138.8877  167.1352 F       1  UNL1       -0.2041
     29 C         138.0388  140.0921  164.8609 C.ar    1  UNL1        0.0593
     30 C         138.5552  140.0824  163.4527 C.ar    1  UNL1        0.1451
     31 F         138.3947  141.2965  162.5866 F       1  UNL1       -0.2040
@<TRIPOS>BOND
     1     1     2    1
     2     2    10    1
     3    10    11   ar
     4    11    12   ar
     5    12    13   ar
     6    13    16    1
     7    16    17   ar
     8    17    18   ar
     9    18    19   ar
    10    19    20   ar
    11    13    14   ar
    12    14    15   ar
    13     2     3    1
    14     3     4   am
    15     4     5    2
    16     4     6   am
    17     6    21    1
    18    21    22    1
    19    22    23    2
    20    22    24    1
    21    24    25   ar
    22    25    26   ar
    23    26    27   ar
    24    27    28    1
    25    27    29   ar
    26    29    30   ar
    27    30    31    1
    28     6     7   am
    29     7     8    2
    30     7     2    1
    31    15    10   ar
    32    30    24   ar
    33    20    16   ar
    34     3     9    1
@<TRIPOS>MOLECULE
*****
 31 34 0 0 0
SMALL
GASTEIGER

@<TRIPOS>ATOM
      1 C         139.7351  137.2746  165.0858 C.3     1  UNL1        0.0337
      2 C         139.9464  138.5444  164.3157 C.3     1  UNL1        0.1467
      3 N         139.6902  137.6764  163.1195 N.am    1  UNL1       -0.2806
      4 C         139.7875  138.5357  161.8940 C.2     1  UNL1        0.3106
      5 O         139.6012  138.0766  160.4782 O.2     1  UNL1       -0.2521
      6 N         140.1039  139.9348  162.3327 N.am    1  UNL1       -0.2050
      7 C         140.2021  139.9401  163.8295 C.2     1  UNL1        0.2527
      8 O         140.5031  141.1320  164.6891 O.2     1  UNL1       -0.2723
      9 H         139.4928  136.7120  163.1359 H       1  UNL1        0.1516
     10 C         140.1584  139.1468  165.6730 C.ar    1  UNL1        0.0021
     11 C         141.5495  139.3301  166.2033 C.ar    1  UNL1       -0.0007
     12 C         141.7615  139.9325  167.5605 C.ar    1  UNL1        0.0190
     13 C         140.5824  140.3518  168.3874 C.ar    1  UNL1        0.0862
     14 C         139.1913  140.1685  167.8572 C.ar    1  UNL1        0.0190
     15 C         138.9793  139.5661  166.5000 C.ar    1  UNL1       -0.0007
     16 N         140.7944  140.9543  169.7447 N.ar    1  UNL1       -0.1886
     17 C         142.0953  141.0147  170.4891 C.ar    1  UNL1        0.2258
     18 N         141.8477  141.6999  171.8003 N.ar    1  UNL1       -0.1045
     19 N         140.3938  142.0629  171.8663 N.ar    1  UNL1       -0.0222
     20 N         139.7428  141.6020  170.5959 N.ar    1  UNL1       -0.0385
     21 C         140.2894  141.1203  161.4327 C.3     1  UNL1        0.1714
     22 C         139.2529  142.2040  161.3966 C.2     1  UNL1        0.1957
     23 O         138.4567  142.4392  160.1473 O.2     1  UNL1       -0.2894
     24 C         139.0126  143.0526  162.6099 C.ar    1  UNL1        0.0640
     25 C         139.9894  144.1302  162.9769 C.ar    1  UNL1        0.0075
     26 C         139.7492  144.9788  164.1903 C.ar    1  UNL1        0.0299
     27 C         138.5321  144.7499  165.0366 C.ar    1  UNL1        0.1424
     28 F         138.2918  145.5985  166.2499 F       1  UNL1       -0.2041
     29 C         137.5553  143.6723  164.6696 C.ar    1  UNL1        0.0593
     30 C         137.7955  142.8237  163.4564 C.ar    1  UNL1        0.1451
     31 F         136.8187  141.7462  163.0894 F       1  UNL1       -0.2040
@<TRIPOS>BOND
     1     1     2    1
     2     2    10    1
     3    10    11   ar
     4    11    12   ar
     5    12    13   ar
     6    13    16    1
     7    16    17   ar
     8    17    18   ar
     9    18    19   ar
    10    19    20   ar
    11    13    14   ar
    12    14    15   ar
    13     2     3    1
    14     3     4   am
    15     4     5    2
    16     4     6   am
    17     6    21    1
    18    21    22    1
    19    22    23    2
    20    22    24    1
    21    24    25   ar
    22    25    26   ar
    23    26    27   ar
    24    27    28    1
    25    27    29   ar
    26    29    30   ar
    27    30    31    1
    28     6     7   am
    29     7     8    2
    30     7     2    1
    31    15    10   ar
    32    30    24   ar
    33    20    16   ar
    34     3     9    1
@<TRIPOS>MOLECULE
*****
 31 34 0 0 0
SMALL
GASTEIGER

@<TRIPOS>ATOM
      1 C         139.6804  137.6174  165.0570 C.3     1  UNL1        0.0337
      2 C         139.0934  138.8830  164.5059 C.3     1  UNL1        0.1467
      3 N         138.8628  138.0549  163.2766 N.am    1  UNL1       -0.2806
      4 C         138.2072  138.9266  162.2469 C.2     1  UNL1        0.3106
      5 O         137.7980  138.5055  160.8667 O.2     1  UNL1       -0.2521
      6 N         138.0325  140.2933  162.8398 N.am    1  UNL1       -0.2050
      7 C         138.5802  140.2663  164.2360 C.2     1  UNL1        0.2527
      8 O         138.6096  141.4202  165.1940 O.2     1  UNL1       -0.2723
      9 H         139.1002  137.1060  163.1652 H       1  UNL1        0.1516
     10 C         139.4467  139.4464  165.8505 C.ar    1  UNL1        0.0021
     11 C         138.4965  139.2933  167.0011 C.ar    1  UNL1       -0.0007
     12 C         138.8499  139.8567  168.3455 C.ar    1  UNL1        0.0190
     13 C         140.1533  140.5732  168.5395 C.ar    1  UNL1        0.0862
     14 C         141.1034  140.7263  167.3890 C.ar    1  UNL1        0.0190
     15 C         140.7501  140.1629  166.0445 C.ar    1  UNL1       -0.0007
     16 N         140.5066  141.1366  169.8841 N.ar    1  UNL1       -0.1886
     17 C         141.8489  141.0560  170.5487 C.ar    1  UNL1        0.2258
     18 N         141.7516  141.7491  171.8754 N.ar    1  UNL1       -0.1045
     19 N         140.3491  142.2581  172.0307 N.ar    1  UNL1       -0.0222
     20 N         139.5797  141.8795  170.8000 N.ar    1  UNL1       -0.0385
     21 C         137.4180  141.4788  162.1565 C.3     1  UNL1        0.1714
     22 C         138.2840  142.4367  161.3933 C.2     1  UNL1        0.1957
     23 O         138.1016  142.5968  159.9130 O.2     1  UNL1       -0.2894
     24 C         139.3325  143.2345  162.1103 C.ar    1  UNL1        0.0640
     25 C         140.7857  142.9610  161.8585 C.ar    1  UNL1        0.0075
     26 C         141.8343  143.7588  162.5756 C.ar    1  UNL1        0.0299
     27 C         141.4297  144.8300  163.5444 C.ar    1  UNL1        0.1424
     28 F         142.4782  145.6278  164.2615 F       1  UNL1       -0.2041
     29 C         139.9764  145.1034  163.7962 C.ar    1  UNL1        0.0593
     30 C         138.9279  144.3058  163.0792 C.ar    1  UNL1        0.1451
     31 F         137.4747  144.5792  163.3310 F       1  UNL1       -0.2040
@<TRIPOS>BOND
     1     1     2    1
     2     2    10    1
     3    10    11   ar
     4    11    12   ar
     5    12    13   ar
     6    13    16    1
     7    16    17   ar
     8    17    18   ar
     9    18    19   ar
    10    19    20   ar
    11    13    14   ar
    12    14    15   ar
    13     2     3    1
    14     3     4   am
    15     4     5    2
    16     4     6   am
    17     6    21    1
    18    21    22    1
    19    22    23    2
    20    22    24    1
    21    24    25   ar
    22    25    26   ar
    23    26    27   ar
    24    27    28    1
    25    27    29   ar
    26    29    30   ar
    27    30    31    1
    28     6     7   am
    29     7     8    2
    30     7     2    1
    31    15    10   ar
    32    30    24   ar
    33    20    16   ar
    34     3     9    1
@<TRIPOS>MOLECULE
*****
 31 34 0 0 0
SMALL
GASTEIGER

@<TRIPOS>ATOM
      1 C         137.7557  140.8055  164.3709 C.3     1  UNL1        0.0337
      2 C         138.9582  139.9394  164.1392 C.3     1  UNL1        0.1467
      3 N         138.3381  139.7101  162.7928 N.am    1  UNL1       -0.2806
      4 C         139.2345  138.7881  162.0206 C.2     1  UNL1        0.3106
      5 O         138.9983  138.2935  160.6243 O.2     1  UNL1       -0.2521
      6 N         140.4086  138.4475  162.8897 N.am    1  UNL1       -0.2050
      7 C         140.2378  139.1590  164.1991 C.2     1  UNL1        0.2527
      8 O         141.1811  139.1004  165.3640 O.2     1  UNL1       -0.2723
      9 H         137.4915  140.0969  162.4722 H       1  UNL1        0.1516
     10 C         139.3269  140.3497  165.5342 C.ar    1  UNL1        0.0021
     11 C         140.1035  141.6122  165.7640 C.ar    1  UNL1       -0.0007
     12 C         140.4721  142.0225  167.1589 C.ar    1  UNL1        0.0190
     13 C         140.0641  141.1702  168.3239 C.ar    1  UNL1        0.0862
     14 C         139.2875  139.9077  168.0940 C.ar    1  UNL1        0.0190
     15 C         138.9189  139.4974  166.6992 C.ar    1  UNL1       -0.0007
     16 N         140.4328  141.5805  169.7189 N.ar    1  UNL1       -0.1886
     17 C         141.8099  141.5476  170.3127 C.ar    1  UNL1        0.2258
     18 N         141.7173  142.0425  171.7257 N.ar    1  UNL1       -0.1045
     19 N         140.2830  142.3814  172.0051 N.ar    1  UNL1       -0.0222
     20 N         139.4892  142.0959  170.7648 N.ar    1  UNL1       -0.0385
     21 C         141.5526  137.5525  162.5152 C.3     1  UNL1        0.1714
     22 C         142.8211  138.1431  161.9749 C.2     1  UNL1        0.1957
     23 O         143.4737  137.5406  160.7661 O.2     1  UNL1       -0.2894
     24 C         143.4371  139.3363  162.6434 C.ar    1  UNL1        0.0640
     25 C         144.5324  139.1493  163.6510 C.ar    1  UNL1        0.0075
     26 C         145.1483  140.3425  164.3195 C.ar    1  UNL1        0.0299
     27 C         144.6690  141.7227  163.9804 C.ar    1  UNL1        0.1424
     28 F         145.2849  142.9159  164.6489 F       1  UNL1       -0.2041
     29 C         143.5737  141.9098  162.9728 C.ar    1  UNL1        0.0593
     30 C         142.9577  140.7167  162.3043 C.ar    1  UNL1        0.1451
     31 F         141.8624  140.9038  161.2967 F       1  UNL1       -0.2040
@<TRIPOS>BOND
     1     1     2    1
     2     2    10    1
     3    10    11   ar
     4    11    12   ar
     5    12    13   ar
     6    13    16    1
     7    16    17   ar
     8    17    18   ar
     9    18    19   ar
    10    19    20   ar
    11    13    14   ar
    12    14    15   ar
    13     2     3    1
    14     3     4   am
    15     4     5    2
    16     4     6   am
    17     6    21    1
    18    21    22    1
    19    22    23    2
    20    22    24    1
    21    24    25   ar
    22    25    26   ar
    23    26    27   ar
    24    27    28    1
    25    27    29   ar
    26    29    30   ar
    27    30    31    1
    28     6     7   am
    29     7     8    2
    30     7     2    1
    31    15    10   ar
    32    30    24   ar
    33    20    16   ar
    34     3     9    1
@<TRIPOS>MOLECULE
*****
 31 34 0 0 0
SMALL
GASTEIGER

@<TRIPOS>ATOM
      1 C         141.5477  137.7753  164.9313 C.3     1  UNL1        0.0337
      2 C         142.4545  138.8889  164.4985 C.3     1  UNL1        0.1467
      3 N         142.6775  138.0271  163.2913 N.am    1  UNL1       -0.2806
      4 C         143.6359  138.7396  162.3837 C.2     1  UNL1        0.3106
      5 O         144.1370  138.2380  161.0619 O.2     1  UNL1       -0.2521
      6 N         144.0053  140.0418  163.0300 N.am    1  UNL1       -0.2050
      7 C         143.2752  140.1341  164.3371 C.2     1  UNL1        0.2527
      8 O         143.3522  141.2719  165.3116 O.2     1  UNL1       -0.2723
      9 H         142.2669  137.1481  163.1240 H       1  UNL1        0.1516
     10 C         142.0420  139.5180  165.7963 C.ar    1  UNL1        0.0021
     11 C         140.8211  140.3876  165.8536 C.ar    1  UNL1       -0.0007
     12 C         140.4086  141.0165  167.1513 C.ar    1  UNL1        0.0190
     13 C         141.2169  140.7759  168.3918 C.ar    1  UNL1        0.0862
     14 C         142.4378  139.9063  168.3345 C.ar    1  UNL1        0.0190
     15 C         142.8503  139.2774  167.0368 C.ar    1  UNL1       -0.0007
     16 N         140.8044  141.4050  169.6896 N.ar    1  UNL1       -0.1886
     17 C         141.2143  140.9507  171.0592 C.ar    1  UNL1        0.2258
     18 N         140.5727  141.8636  172.0617 N.ar    1  UNL1       -0.1045
     19 N         139.7663  142.8821  171.3116 N.ar    1  UNL1       -0.0222
     20 N         139.9095  142.5986  169.8457 N.ar    1  UNL1       -0.0385
     21 C         144.9406  141.0711  162.4680 C.3     1  UNL1        0.1714
     22 C         144.3937  142.2661  161.7449 C.2     1  UNL1        0.1957
     23 O         144.9669  142.6671  160.4180 O.2     1  UNL1       -0.2894
     24 C         143.2736  143.0602  162.3488 C.ar    1  UNL1        0.0640
     25 C         143.5741  144.2962  163.1438 C.ar    1  UNL1        0.0075
     26 C         142.4539  145.0903  163.7477 C.ar    1  UNL1        0.0299
     27 C         141.0333  144.6485  163.5566 C.ar    1  UNL1        0.1424
     28 F         139.9131  145.4426  164.1605 F       1  UNL1       -0.2041
     29 C         140.7328  143.4125  162.7616 C.ar    1  UNL1        0.0593
     30 C         141.8529  142.6184  162.1577 C.ar    1  UNL1        0.1451
     31 F         141.5524  141.3824  161.3626 F       1  UNL1       -0.2040
@<TRIPOS>BOND
     1     1     2    1
     2     2    10    1
     3    10    11   ar
     4    11    12   ar
     5    12    13   ar
     6    13    16    1
     7    16    17   ar
     8    17    18   ar
     9    18    19   ar
    10    19    20   ar
    11    13    14   ar
    12    14    15   ar
    13     2     3    1
    14     3     4   am
    15     4     5    2
    16     4     6   am
    17     6    21    1
    18    21    22    1
    19    22    23    2
    20    22    24    1
    21    24    25   ar
    22    25    26   ar
    23    26    27   ar
    24    27    28    1
    25    27    29   ar
    26    29    30   ar
    27    30    31    1
    28     6     7   am
    29     7     8    2
    30     7     2    1
    31    15    10   ar
    32    30    24   ar
    33    20    16   ar
    34     3     9    1
@<TRIPOS>MOLECULE
*****
 31 34 0 0 0
SMALL
GASTEIGER

@<TRIPOS>ATOM
      1 C         143.2608  144.1116  164.2604 C.3     1  UNL1        0.0337
      2 C         142.9518  142.6792  163.9397 C.3     1  UNL1        0.1467
      3 N         143.5007  143.0276  162.5879 N.am    1  UNL1       -0.2806
      4 C         143.4297  141.8004  161.7284 C.2     1  UNL1        0.3106
      5 O         143.8735  141.6980  160.2993 O.2     1  UNL1       -0.2521
      6 N         142.8370  140.6934  162.5490 N.am    1  UNL1       -0.2050
      7 C         142.5417  141.2366  163.9156 C.2     1  UNL1        0.2527
      8 O         141.9415  140.4714  165.0578 O.2     1  UNL1       -0.2723
      9 H         143.8467  143.9074  162.3130 H       1  UNL1        0.1516
     10 C         142.4676  142.6302  165.3586 C.ar    1  UNL1        0.0021
     11 C         143.4337  142.3516  166.4716 C.ar    1  UNL1       -0.0007
     12 C         142.9495  142.3026  167.8904 C.ar    1  UNL1        0.0190
     13 C         141.4990  142.5324  168.1962 C.ar    1  UNL1        0.0862
     14 C         140.5329  142.8110  167.0831 C.ar    1  UNL1        0.0190
     15 C         141.0172  142.8600  165.6643 C.ar    1  UNL1       -0.0007
     16 N         141.0148  142.4834  169.6151 N.ar    1  UNL1       -0.1886
     17 C         141.6593  141.7307  170.7411 C.ar    1  UNL1        0.2258
     18 N         140.8439  141.9606  171.9790 N.ar    1  UNL1       -0.1045
     19 N         139.6954  142.8555  171.6179 N.ar    1  UNL1       -0.0222
     20 N         139.8011  143.1785  170.1569 N.ar    1  UNL1       -0.0385
     21 C         142.5840  139.2898  162.0844 C.3     1  UNL1        0.1714
     22 C         141.1772  138.8028  161.9004 C.2     1  UNL1        0.1957
     23 O         140.7178  138.3288  160.5534 O.2     1  UNL1       -0.2894
     24 C         140.2299  138.7899  163.0633 C.ar    1  UNL1        0.0640
     25 C         139.2556  139.9151  163.2495 C.ar    1  UNL1        0.0075
     26 C         138.3082  139.9022  164.4124 C.ar    1  UNL1        0.0299
     27 C         138.3352  138.7641  165.3891 C.ar    1  UNL1        0.1424
     28 F         137.3878  138.7512  166.5520 F       1  UNL1       -0.2041
     29 C         139.3095  137.6389  165.2029 C.ar    1  UNL1        0.0593
     30 C         140.2568  137.6518  164.0401 C.ar    1  UNL1        0.1451
     31 F         141.2311  136.5266  163.8539 F       1  UNL1       -0.2040
@<TRIPOS>BOND
     1     1     2    1
     2     2    10    1
     3    10    11   ar
     4    11    12   ar
     5    12    13   ar
     6    13    16    1
     7    16    17   ar
     8    17    18   ar
     9    18    19   ar
    10    19    20   ar
    11    13    14   ar
    12    14    15   ar
    13     2     3    1
    14     3     4   am
    15     4     5    2
    16     4     6   am
    17     6    21    1
    18    21    22    1
    19    22    23    2
    20    22    24    1
    21    24    25   ar
    22    25    26   ar
    23    26    27   ar
    24    27    28    1
    25    27    29   ar
    26    29    30   ar
    27    30    31    1
    28     6     7   am
    29     7     8    2
    30     7     2    1
    31    15    10   ar
    32    30    24   ar
    33    20    16   ar
    34     3     9    1
@<TRIPOS>MOLECULE
*****
 31 34 0 0 0
SMALL
GASTEIGER

@<TRIPOS>ATOM
      1 C         145.0789  139.8262  164.5235 C.3     1  UNL1        0.0337
      2 C         143.7400  139.3548  164.0386 C.3     1  UNL1        0.1467
      3 N         144.4816  139.0515  162.7706 N.am    1  UNL1       -0.2806
      4 C         143.5046  138.4766  161.7883 C.2     1  UNL1        0.3106
      5 O         143.8180  138.0318  160.3905 O.2     1  UNL1       -0.2521
      6 N         142.1591  138.4246  162.4492 N.am    1  UNL1       -0.2050
      7 C         142.3046  138.9674  163.8400 C.2     1  UNL1        0.2527
      8 O         141.2072  139.0995  164.8542 O.2     1  UNL1       -0.2723
      9 H         145.4412  139.2031  162.6110 H       1  UNL1        0.1516
     10 C         143.2783  139.7567  165.4081 C.ar    1  UNL1        0.0021
     11 C         142.8422  141.1681  165.6684 C.ar    1  UNL1       -0.0007
     12 C         142.3805  141.5699  167.0378 C.ar    1  UNL1        0.0190
     13 C         142.3549  140.5603  168.1469 C.ar    1  UNL1        0.0862
     14 C         142.7909  139.1489  167.8866 C.ar    1  UNL1        0.0190
     15 C         143.2526  138.7471  166.5172 C.ar    1  UNL1       -0.0007
     16 N         141.8931  140.9622  169.5164 N.ar    1  UNL1       -0.1886
     17 C         140.8274  140.2810  170.3227 C.ar    1  UNL1        0.2258
     18 N         140.6916  141.0136  171.6245 N.ar    1  UNL1       -0.1045
     19 N         141.6736  142.1476  171.6228 N.ar    1  UNL1       -0.0222
     20 N         142.4161  142.1158  170.3199 N.ar    1  UNL1       -0.0385
     21 C         140.8907  137.9187  161.8284 C.3     1  UNL1        0.1714
     22 C         140.1112  138.7960  160.8941 C.2     1  UNL1        0.1957
     23 O         140.0403  138.4603  159.4339 O.2     1  UNL1       -0.2894
     24 C         139.4026  140.0088  161.4202 C.ar    1  UNL1        0.0640
     25 C         139.7271  141.3653  160.8682 C.ar    1  UNL1        0.0075
     26 C         139.0184  142.5782  161.3943 C.ar    1  UNL1        0.0299
     27 C         137.9853  142.4347  162.4722 C.ar    1  UNL1        0.1424
     28 F         137.2767  143.6476  162.9983 F       1  UNL1       -0.2041
     29 C         137.6609  141.0782  163.0242 C.ar    1  UNL1        0.0593
     30 C         138.3694  139.8653  162.4982 C.ar    1  UNL1        0.1451
     31 F         138.0450  138.5088  163.0502 F       1  UNL1       -0.2040
@<TRIPOS>BOND
     1     1     2    1
     2     2    10    1
     3    10    11   ar
     4    11    12   ar
     5    12    13   ar
     6    13    16    1
     7    16    17   ar
     8    17    18   ar
     9    18    19   ar
    10    19    20   ar
    11    13    14   ar
    12    14    15   ar
    13     2     3    1
    14     3     4   am
    15     4     5    2
    16     4     6   am
    17     6    21    1
    18    21    22    1
    19    22    23    2
    20    22    24    1
    21    24    25   ar
    22    25    26   ar
    23    26    27   ar
    24    27    28    1
    25    27    29   ar
    26    29    30   ar
    27    30    31    1
    28     6     7   am
    29     7     8    2
    30     7     2    1
    31    15    10   ar
    32    30    24   ar
    33    20    16   ar
    34     3     9    1
@<TRIPOS>MOLECULE
*****
 31 34 0 0 0
SMALL
GASTEIGER

@<TRIPOS>ATOM
      1 C         137.6622  143.3493  163.7818 C.3     1  UNL1        0.0337
      2 C         138.9168  142.8339  163.1411 C.3     1  UNL1        0.1467
      3 N         138.4047  143.5520  161.9278 N.am    1  UNL1       -0.2806
      4 C         139.3950  143.3529  160.8190 C.2     1  UNL1        0.3106
      5 O         139.2813  143.8991  159.4266 O.2     1  UNL1       -0.2521
      6 N         140.5191  142.5116  161.3469 N.am    1  UNL1       -0.2050
      7 C         140.2235  142.1908  162.7821 C.2     1  UNL1        0.2527
      8 O         141.0837  141.3709  163.6975 O.2     1  UNL1       -0.2723
      9 H         137.5660  144.0642  161.8695 H       1  UNL1        0.1516
     10 C         139.1665  142.2234  164.4884 C.ar    1  UNL1        0.0021
     11 C         138.6093  140.8692  164.8131 C.ar    1  UNL1       -0.0007
     12 C         138.8590  140.2588  166.1603 C.ar    1  UNL1        0.0190
     13 C         139.6660  141.0027  167.1828 C.ar    1  UNL1        0.0862
     14 C         140.2232  142.3569  166.8581 C.ar    1  UNL1        0.0190
     15 C         139.9734  142.9673  165.5109 C.ar    1  UNL1       -0.0007
     16 N         139.9157  140.3922  168.5301 N.ar    1  UNL1       -0.1886
     17 C         141.2400  139.9190  169.0518 C.ar    1  UNL1        0.2258
     18 N         141.0278  139.3821  170.4363 N.ar    1  UNL1       -0.1045
     19 N         139.5723  139.5237  170.7702 N.ar    1  UNL1       -0.0222
     20 N         138.8850  140.1479  169.5921 N.ar    1  UNL1       -0.0385
     21 C         141.7267  142.0688  160.5751 C.3     1  UNL1        0.1714
     22 C         143.0238  142.8076  160.7233 C.2     1  UNL1        0.1957
     23 O         143.7752  143.2558  159.5049 O.2     1  UNL1       -0.2894
     24 C         143.5695  143.0981  162.0900 C.ar    1  UNL1        0.0640
     25 C         144.5770  142.1740  162.7073 C.ar    1  UNL1        0.0075
     26 C         145.1226  142.4645  164.0740 C.ar    1  UNL1        0.0299
     27 C         144.6609  143.6790  164.8234 C.ar    1  UNL1        0.1424
     28 F         145.2066  143.9695  166.1901 F       1  UNL1       -0.2041
     29 C         143.6534  144.6031  164.2061 C.ar    1  UNL1        0.0593
     30 C         143.1077  144.3127  162.8395 C.ar    1  UNL1        0.1451
     31 F         142.1002  145.2367  162.2222 F       1  UNL1       -0.2040
@<TRIPOS>BOND
     1     1     2    1
     2     2    10    1
     3    10    11   ar
     4    11    12   ar
     5    12    13   ar
     6    13    16    1
     7    16    17   ar
     8    17    18   ar
     9    18    19   ar
    10    19    20   ar
    11    13    14   ar
    12    14    15   ar
    13     2     3    1
    14     3     4   am
    15     4     5    2
    16     4     6   am
    17     6    21    1
    18    21    22    1
    19    22    23    2
    20    22    24    1
    21    24    25   ar
    22    25    26   ar
    23    26    27   ar
    24    27    28    1
    25    27    29   ar
    26    29    30   ar
    27    30    31    1
    28     6     7   am
    29     7     8    2
    30     7     2    1
    31    15    10   ar
    32    30    24   ar
    33    20    16   ar
    34     3     9    1
@<TRIPOS>MOLECULE
*****
 31 34 0 0 0
SMALL
GASTEIGER

@<TRIPOS>ATOM
      1 C         142.6725  143.7983  164.0134 C.3     1  UNL1        0.0337
      2 C         142.8889  142.3157  163.9431 C.3     1  UNL1        0.1467
      3 N         143.3373  142.6061  162.5415 N.am    1  UNL1       -0.2806
      4 C         143.7275  141.3071  161.9012 C.2     1  UNL1        0.3106
      5 O         144.2358  141.1320  160.5008 O.2     1  UNL1       -0.2521
      6 N         143.5203  140.2137  162.9070 N.am    1  UNL1       -0.2050
      7 C         143.0020  140.8371  164.1690 C.2     1  UNL1        0.2527
      8 O         142.6573  140.1096  165.4347 O.2     1  UNL1       -0.2723
      9 H         143.3697  143.4936  162.1165 H       1  UNL1        0.1516
     10 C         142.3952  142.3352  165.3595 C.ar    1  UNL1        0.0021
     11 C         140.9218  142.3371  165.6402 C.ar    1  UNL1       -0.0007
     12 C         140.4282  142.3567  167.0565 C.ar    1  UNL1        0.0190
     13 C         141.4081  142.3743  168.1921 C.ar    1  UNL1        0.0862
     14 C         142.8815  142.3724  167.9114 C.ar    1  UNL1        0.0190
     15 C         143.3751  142.3529  166.4951 C.ar    1  UNL1       -0.0007
     16 N         140.9144  142.3939  169.6084 N.ar    1  UNL1       -0.1886
     17 C         141.4778  141.5998  170.7495 C.ar    1  UNL1        0.2258
     18 N         140.6823  141.9261  171.9787 N.ar    1  UNL1       -0.1045
     19 N         139.6273  142.9219  171.5972 N.ar    1  UNL1       -0.0222
     20 N         139.7708  143.2110  170.1324 N.ar    1  UNL1       -0.0385
     21 C         143.7850  138.7534  162.6890 C.3     1  UNL1        0.1714
     22 C         143.0023  137.9951  161.6583 C.2     1  UNL1        0.1957
     23 O         143.7180  137.1677  160.6320 O.2     1  UNL1       -0.2894
     24 C         141.5040  138.0642  161.6538 C.ar    1  UNL1        0.0640
     25 C         140.7819  138.6122  160.4587 C.ar    1  UNL1        0.0075
     26 C         139.2835  138.6812  160.4542 C.ar    1  UNL1        0.0299
     27 C         138.5071  138.2023  161.6449 C.ar    1  UNL1        0.1424
     28 F         137.0087  138.2714  161.6405 F       1  UNL1       -0.2041
     29 C         139.2291  137.6543  162.8400 C.ar    1  UNL1        0.0593
     30 C         140.7274  137.5852  162.8445 C.ar    1  UNL1        0.1451
     31 F         141.4495  137.0372  164.0397 F       1  UNL1       -0.2040
@<TRIPOS>BOND
     1     1     2    1
     2     2    10    1
     3    10    11   ar
     4    11    12   ar
     5    12    13   ar
     6    13    16    1
     7    16    17   ar
     8    17    18   ar
     9    18    19   ar
    10    19    20   ar
    11    13    14   ar
    12    14    15   ar
    13     2     3    1
    14     3     4   am
    15     4     5    2
    16     4     6   am
    17     6    21    1
    18    21    22    1
    19    22    23    2
    20    22    24    1
    21    24    25   ar
    22    25    26   ar
    23    26    27   ar
    24    27    28    1
    25    27    29   ar
    26    29    30   ar
    27    30    31    1
    28     6     7   am
    29     7     8    2
    30     7     2    1
    31    15    10   ar
    32    30    24   ar
    33    20    16   ar
    34     3     9    1
