@<TRIPOS>MOLECULE
*****
 39 43 0 0 0
SMALL
GASTEIGER

@<TRIPOS>ATOM
      1 N         139.7979  139.1318  162.3358 N.pl3   1  UNL1       -0.2598
      2 C         138.7230  138.1732  162.7550 C.2     1  UNL1        0.1681
      3 N         138.3086  138.0939  164.1944 N.2     1  UNL1       -0.2278
      4 C         138.9690  138.9732  165.2146 C.ar    1  UNL1        0.0806
      5 C         138.5545  138.8939  166.6540 C.ar    1  UNL1        0.0146
      6 C         139.2150  139.7732  167.6742 C.ar    1  UNL1       -0.0203
      7 C         138.8005  139.6939  169.1136 C.3     1  UNL1        0.0311
      8 C         140.2899  140.7318  167.2549 C.ar    1  UNL1       -0.0018
      9 C         140.7043  140.8110  165.8155 C.ar    1  UNL1       -0.0009
     10 C         140.0439  139.9318  164.7953 C.ar    1  UNL1        0.0225
     11 C         140.4583  140.0110  163.3559 C.3     1  UNL1        0.1793
     12 C         140.9503  141.6110  168.2750 C.ar    1  UNL1        0.0302
     13 C         140.2387  142.8267  168.7907 C.ar    1  UNL1        0.0388
     14 C         140.8991  143.7060  169.8108 C.ar    1  UNL1        0.1338
     15 O         140.1876  144.9216  170.3265 O.3     1  UNL1       -0.5055
     16 C         142.2712  143.3696  170.3153 C.ar    1  UNL1        0.0389
     17 C         142.9827  142.1540  169.7997 C.ar    1  UNL1        0.0327
     18 C         142.3223  141.2747  168.7795 C.ar    1  UNL1        0.1403
     19 F         143.0338  140.0591  168.2638 F       1  UNL1       -0.2042
     20 H         139.3306  145.1317  170.0114 H       1  UNL1        0.2922
     21 C         139.2798  141.2362  157.6132 C.3     1  UNL1        0.0311
     22 C         139.9533  140.2633  158.5350 C.ar    1  UNL1       -0.0198
     23 C         141.0413  139.3697  158.0174 C.ar    1  UNL1        0.0072
     24 C         141.7148  138.3968  158.9393 C.ar    1  UNL1        0.0586
     25 CL        142.8028  137.5033  158.4218 Cl      1  UNL1       -0.0822
     26 C         141.3003  138.3175  160.3788 C.ar    1  UNL1        0.0263
     27 C         140.2124  139.2111  160.8963 C.ar    1  UNL1        0.0540
     28 C         139.5389  140.1840  159.9744 C.ar    1  UNL1        0.0107
     29 C         141.5332  140.9696  162.9366 C.2     1  UNL1        0.2485
     30 O         141.1713  142.3585  162.5008 O.2     1  UNL1       -0.2727
     31 N         142.9701  140.5392  162.9531 N.am    1  UNL1       -0.2748
     32 C         143.3320  139.1503  163.3890 C.3     1  UNL1        0.1150
     33 C         144.0450  141.4977  162.5338 C.3     1  UNL1        0.1091
     34 C         144.0481  142.9004  163.0653 C.3     1  UNL1        0.0741
     35 C         144.1675  143.2968  164.5070 C.3     1  UNL1        0.0189
     36 C         144.1255  144.7944  164.5810 C.3     1  UNL1        0.0185
     37 C         143.9801  145.3236  163.1850 C.3     1  UNL1        0.0686
     38 N         143.9323  144.1531  162.2483 N.3     1  UNL1       -0.2972
     39 H         144.7065  144.2075  161.5864 H       1  UNL1        0.1233
@<TRIPOS>BOND
     1    21    22    1
     2    22    23   ar
     3    23    24   ar
     4    24    25    1
     5    24    26   ar
     6    26    27   ar
     7    27     1    1
     8     1     2    1
     9     2     3    2
    10     3     4    1
    11     4     5   ar
    12     5     6   ar
    13     6     7    1
    14     6     8   ar
    15     8    12    1
    16    12    13   ar
    17    13    14   ar
    18    14    15    1
    19    14    16   ar
    20    16    17   ar
    21    17    18   ar
    22    18    19    1
    23     8     9   ar
    24     9    10   ar
    25    10    11    1
    26    11    29    1
    27    29    30    2
    28    29    31   am
    29    31    32    1
    30    31    33    1
    31    34    33    1
    32    34    35    1
    33    35    36    1
    34    36    37    1
    35    37    38    1
    36    27    28   ar
    37    28    22   ar
    38    11     1    1
    39    38    34    1
    40    10     4   ar
    41    18    12   ar
    42    15    20    1
    43    38    39    1
@<TRIPOS>MOLECULE
*****
 39 43 0 0 0
SMALL
GASTEIGER

@<TRIPOS>ATOM
      1 N         139.7356  139.3377  162.3847 N.pl3   1  UNL1       -0.2598
      2 C         138.7334  138.3106  162.8211 C.2     1  UNL1        0.1681
      3 N         138.3721  138.1842  164.2715 N.2     1  UNL1       -0.2278
      4 C         139.0131  139.0849  165.2853 C.ar    1  UNL1        0.0806
      5 C         138.6518  138.9584  166.7357 C.ar    1  UNL1        0.0146
      6 C         139.2928  139.8591  167.7496 C.ar    1  UNL1       -0.0203
      7 C         138.9315  139.7327  169.1999 C.3     1  UNL1        0.0311
      8 C         140.2950  140.8862  167.3131 C.ar    1  UNL1       -0.0018
      9 C         140.6563  141.0127  165.8627 C.ar    1  UNL1       -0.0009
     10 C         140.0153  140.1120  164.8489 C.ar    1  UNL1        0.0225
     11 C         140.3766  140.2384  163.3986 C.3     1  UNL1        0.1793
     12 C         140.9360  141.7869  168.3269 C.ar    1  UNL1        0.0302
     13 C         140.1911  142.9806  168.8470 C.ar    1  UNL1        0.0388
     14 C         140.8321  143.8813  169.8609 C.ar    1  UNL1        0.1338
     15 O         140.0873  145.0749  170.3810 O.3     1  UNL1       -0.5055
     16 C         142.2179  143.5883  170.3547 C.ar    1  UNL1        0.0389
     17 C         142.9627  142.3947  169.8346 C.ar    1  UNL1        0.0327
     18 C         142.3217  141.4940  168.8207 C.ar    1  UNL1        0.1403
     19 F         143.0665  140.3004  168.3006 F       1  UNL1       -0.2042
     20 H         139.2217  145.2579  170.0725 H       1  UNL1        0.2922
     21 C         139.0783  141.6268  157.7665 C.3     1  UNL1        0.0311
     22 C         139.7682  140.6088  158.6252 C.ar    1  UNL1       -0.0198
     23 C         140.8195  139.7172  158.0336 C.ar    1  UNL1        0.0072
     24 C         141.5095  138.6991  158.8924 C.ar    1  UNL1        0.0586
     25 CL        142.5607  137.8075  158.3008 Cl      1  UNL1       -0.0822
     26 C         141.1482  138.5726  160.3428 C.ar    1  UNL1        0.0263
     27 C         140.0969  139.4642  160.9343 C.ar    1  UNL1        0.0540
     28 C         139.4070  140.4823  160.0756 C.ar    1  UNL1        0.0107
     29 C         141.3789  141.2656  162.9620 C.2     1  UNL1        0.2485
     30 O         142.8337  140.9086  162.8853 O.2     1  UNL1       -0.2727
     31 N         140.9262  142.6496  162.6023 N.am    1  UNL1       -0.2748
     32 C         139.4712  143.0066  162.6791 C.3     1  UNL1        0.1150
     33 C         141.9284  143.6768  162.1658 C.3     1  UNL1        0.1091
     34 C         141.9851  144.1065  160.7298 C.3     1  UNL1        0.0741
     35 C         142.4485  143.2674  159.5760 C.3     1  UNL1        0.0189
     36 C         142.3382  144.0931  158.3286 C.3     1  UNL1        0.0185
     37 C         141.8065  145.4424  158.7114 C.3     1  UNL1        0.0686
     38 N         141.5882  145.4507  160.1954 N.3     1  UNL1       -0.2972
     39 H         140.6047  145.6278  160.3996 H       1  UNL1        0.1233
@<TRIPOS>BOND
     1    21    22    1
     2    22    23   ar
     3    23    24   ar
     4    24    25    1
     5    24    26   ar
     6    26    27   ar
     7    27     1    1
     8     1     2    1
     9     2     3    2
    10     3     4    1
    11     4     5   ar
    12     5     6   ar
    13     6     7    1
    14     6     8   ar
    15     8    12    1
    16    12    13   ar
    17    13    14   ar
    18    14    15    1
    19    14    16   ar
    20    16    17   ar
    21    17    18   ar
    22    18    19    1
    23     8     9   ar
    24     9    10   ar
    25    10    11    1
    26    11    29    1
    27    29    30    2
    28    29    31   am
    29    31    32    1
    30    31    33    1
    31    34    33    1
    32    34    35    1
    33    35    36    1
    34    36    37    1
    35    37    38    1
    36    27    28   ar
    37    28    22   ar
    38    11     1    1
    39    38    34    1
    40    10     4   ar
    41    18    12   ar
    42    15    20    1
    43    38    39    1
@<TRIPOS>MOLECULE
*****
 39 43 0 0 0
SMALL
GASTEIGER

@<TRIPOS>ATOM
      1 N         139.9030  143.7334  161.3881 N.pl3   1  UNL1       -0.2598
      2 C         140.5612  144.8886  160.6938 C.2     1  UNL1        0.1681
      3 N         140.4783  145.0126  159.2012 N.2     1  UNL1       -0.2278
      4 C         139.7371  143.9814  158.4030 C.ar    1  UNL1        0.0806
      5 C         139.6542  144.1054  156.9104 C.ar    1  UNL1        0.0146
      6 C         138.9130  143.0742  156.1121 C.ar    1  UNL1       -0.0203
      7 C         138.8301  143.1982  154.6196 C.3     1  UNL1        0.0311
      8 C         138.2548  141.9189  156.8065 C.ar    1  UNL1       -0.0018
      9 C         138.3377  141.7949  158.2990 C.ar    1  UNL1       -0.0009
     10 C         139.0789  142.8261  159.0973 C.ar    1  UNL1        0.0225
     11 C         139.1618  142.7021  160.5898 C.3     1  UNL1        0.1793
     12 C         137.5136  140.8876  156.0083 C.ar    1  UNL1        0.0302
     13 C         136.0232  140.9787  155.8652 C.ar    1  UNL1        0.0388
     14 C         135.2820  139.9474  155.0670 C.ar    1  UNL1        0.1338
     15 O         133.7916  140.0384  154.9239 O.3     1  UNL1       -0.5055
     16 C         136.0312  138.8252  154.4118 C.ar    1  UNL1        0.0389
     17 C         137.5216  138.7342  154.5549 C.ar    1  UNL1        0.0327
     18 C         138.2628  139.7654  155.3531 C.ar    1  UNL1        0.1403
     19 F         139.7531  139.6744  155.4962 F       1  UNL1       -0.2042
     20 H         133.3236  140.7394  155.3331 H       1  UNL1        0.2922
     21 C         141.9461  141.4996  165.6113 C.3     1  UNL1        0.0311
     22 C         141.0075  142.4924  164.9923 C.ar    1  UNL1       -0.0198
     23 C         140.1518  143.3612  165.8658 C.ar    1  UNL1        0.0072
     24 C         139.2131  144.3540  165.2468 C.ar    1  UNL1        0.0586
     25 CL        138.3575  145.2228  166.1202 Cl      1  UNL1       -0.0822
     26 C         139.1302  144.4781  163.7541 C.ar    1  UNL1        0.0263
     27 C         139.9859  143.6093  162.8807 C.ar    1  UNL1        0.0540
     28 C         140.9246  142.6165  163.4997 C.ar    1  UNL1        0.0107
     29 C         138.5036  141.5468  161.2842 C.2     1  UNL1        0.2485
     30 O         137.1452  141.7156  161.8975 O.2     1  UNL1       -0.2727
     31 N         139.2038  140.2228  161.3652 N.am    1  UNL1       -0.2748
     32 C         140.5623  140.0540  160.7519 C.3     1  UNL1        0.1150
     33 C         138.5456  139.0675  162.0595 C.3     1  UNL1        0.1091
     34 C         138.4979  139.0215  163.5581 C.3     1  UNL1        0.0741
     35 C         138.9057  137.8621  164.4180 C.3     1  UNL1        0.0189
     36 C         138.6939  138.2509  165.8512 C.3     1  UNL1        0.0185
     37 C         138.1552  139.6506  165.8770 C.3     1  UNL1        0.0686
     38 N         138.0341  140.1268  164.4598 N.3     1  UNL1       -0.2972
     39 H         138.6155  140.9534  164.3215 H       1  UNL1        0.1233
@<TRIPOS>BOND
     1    21    22    1
     2    22    23   ar
     3    23    24   ar
     4    24    25    1
     5    24    26   ar
     6    26    27   ar
     7    27     1    1
     8     1     2    1
     9     2     3    2
    10     3     4    1
    11     4     5   ar
    12     5     6   ar
    13     6     7    1
    14     6     8   ar
    15     8    12    1
    16    12    13   ar
    17    13    14   ar
    18    14    15    1
    19    14    16   ar
    20    16    17   ar
    21    17    18   ar
    22    18    19    1
    23     8     9   ar
    24     9    10   ar
    25    10    11    1
    26    11    29    1
    27    29    30    2
    28    29    31   am
    29    31    32    1
    30    31    33    1
    31    34    33    1
    32    34    35    1
    33    35    36    1
    34    36    37    1
    35    37    38    1
    36    27    28   ar
    37    28    22   ar
    38    11     1    1
    39    38    34    1
    40    10     4   ar
    41    18    12   ar
    42    15    20    1
    43    38    39    1
@<TRIPOS>MOLECULE
*****
 39 43 0 0 0
SMALL
GASTEIGER

@<TRIPOS>ATOM
      1 N         140.7522  139.9198  159.5984 N.pl3   1  UNL1       -0.2598
      2 C         139.7270  138.8554  159.3418 C.2     1  UNL1        0.1681
      3 N         139.1205  138.1058  160.4907 N.2     1  UNL1       -0.2278
      4 C         139.5392  138.4205  161.8963 C.ar    1  UNL1        0.0806
      5 C         138.9327  137.6708  163.0453 C.ar    1  UNL1        0.0146
      6 C         139.3514  137.9855  164.4508 C.ar    1  UNL1       -0.0203
      7 C         138.7449  137.2358  165.5998 C.3     1  UNL1        0.0311
      8 C         140.3767  139.0499  164.7074 C.ar    1  UNL1       -0.0018
      9 C         140.9832  139.7996  163.5585 C.ar    1  UNL1       -0.0009
     10 C         140.5645  139.4849  162.1529 C.ar    1  UNL1        0.0225
     11 C         141.1710  140.2345  161.0040 C.3     1  UNL1        0.1793
     12 C         140.7955  139.3646  166.1130 C.ar    1  UNL1        0.0302
     13 C         139.8034  139.9393  167.0803 C.ar    1  UNL1        0.0388
     14 C         140.2221  140.2540  168.4858 C.ar    1  UNL1        0.1338
     15 O         139.2301  140.8286  169.4531 O.3     1  UNL1       -0.5055
     16 C         141.6330  139.9941  168.9241 C.ar    1  UNL1        0.0389
     17 C         142.6250  139.4195  167.9568 C.ar    1  UNL1        0.0327
     18 C         142.2063  139.1047  166.5512 C.ar    1  UNL1        0.1403
     19 F         143.1983  138.5301  165.5840 F       1  UNL1       -0.2042
     20 H         138.3488  140.9910  169.1793 H       1  UNL1        0.2922
     21 C         144.4626  140.3941  155.9917 C.3     1  UNL1        0.0311
     22 C         143.2140  140.9066  156.6461 C.ar    1  UNL1       -0.0198
     23 C         142.5720  142.1689  156.1515 C.ar    1  UNL1        0.0072
     24 C         141.3233  142.6814  156.8059 C.ar    1  UNL1        0.0586
     25 CL        140.6813  143.9436  156.3114 Cl      1  UNL1       -0.0822
     26 C         140.7168  141.9317  157.9549 C.ar    1  UNL1        0.0263
     27 C         141.3588  140.6695  158.4494 C.ar    1  UNL1        0.0540
     28 C         142.6074  140.1570  157.7950 C.ar    1  UNL1        0.0107
     29 C         142.1963  141.2990  161.2605 C.2     1  UNL1        0.2485
     30 O         141.7731  142.7320  161.3915 O.2     1  UNL1       -0.2727
     31 N         143.6449  140.9303  161.3862 N.am    1  UNL1       -0.2748
     32 C         144.0681  139.4971  161.2552 C.3     1  UNL1        0.1150
     33 C         144.6702  141.9946  161.6427 C.3     1  UNL1        0.1091
     34 C         144.4350  143.0205  162.7114 C.3     1  UNL1        0.0741
     35 C         144.5843  142.8053  164.1884 C.3     1  UNL1        0.0189
     36 C         144.2508  144.0936  164.8806 C.3     1  UNL1        0.0185
     37 C         143.8953  145.1050  163.8315 C.3     1  UNL1        0.0686
     38 N         144.0092  144.4418  162.4909 N.3     1  UNL1       -0.2972
     39 H         144.7035  144.9269  161.9226 H       1  UNL1        0.1233
@<TRIPOS>BOND
     1    21    22    1
     2    22    23   ar
     3    23    24   ar
     4    24    25    1
     5    24    26   ar
     6    26    27   ar
     7    27     1    1
     8     1     2    1
     9     2     3    2
    10     3     4    1
    11     4     5   ar
    12     5     6   ar
    13     6     7    1
    14     6     8   ar
    15     8    12    1
    16    12    13   ar
    17    13    14   ar
    18    14    15    1
    19    14    16   ar
    20    16    17   ar
    21    17    18   ar
    22    18    19    1
    23     8     9   ar
    24     9    10   ar
    25    10    11    1
    26    11    29    1
    27    29    30    2
    28    29    31   am
    29    31    32    1
    30    31    33    1
    31    34    33    1
    32    34    35    1
    33    35    36    1
    34    36    37    1
    35    37    38    1
    36    27    28   ar
    37    28    22   ar
    38    11     1    1
    39    38    34    1
    40    10     4   ar
    41    18    12   ar
    42    15    20    1
    43    38    39    1
@<TRIPOS>MOLECULE
*****
 39 43 0 0 0
SMALL
GASTEIGER

@<TRIPOS>ATOM
      1 N         141.8329  141.6695  160.6869 N.pl3   1  UNL1       -0.2598
      2 C         142.7827  142.5575  159.9390 C.2     1  UNL1        0.1681
      3 N         143.4684  142.0513  158.7047 N.2     1  UNL1       -0.2278
      4 C         143.2044  140.6571  158.2184 C.ar    1  UNL1        0.0806
      5 C         143.8901  140.1509  156.9840 C.ar    1  UNL1        0.0146
      6 C         143.6261  138.7567  156.4977 C.ar    1  UNL1       -0.0203
      7 C         144.3118  138.2504  155.2634 C.3     1  UNL1        0.0311
      8 C         142.6763  137.8687  157.2457 C.ar    1  UNL1       -0.0018
      9 C         141.9906  138.3749  158.4800 C.ar    1  UNL1       -0.0009
     10 C         142.2546  139.7691  158.9663 C.ar    1  UNL1        0.0225
     11 C         141.5689  140.2753  160.2006 C.3     1  UNL1        0.1793
     12 C         142.4123  136.4745  156.7594 C.ar    1  UNL1        0.0302
     13 C         143.1262  135.3137  157.3864 C.ar    1  UNL1        0.0388
     14 C         142.8622  133.9195  156.9001 C.ar    1  UNL1        0.1338
     15 O         143.5760  132.7587  157.5270 O.3     1  UNL1       -0.5055
     16 C         141.8843  133.6861  155.7868 C.ar    1  UNL1        0.0389
     17 C         141.1705  134.8469  155.1598 C.ar    1  UNL1        0.0327
     18 C         141.4345  136.2411  155.6462 C.ar    1  UNL1        0.1403
     19 F         140.7207  137.4018  155.0193 F       1  UNL1       -0.2042
     20 H         144.1868  132.9045  158.2224 H       1  UNL1        0.2922
     21 C         141.8354  142.5002  165.8163 C.3     1  UNL1        0.0311
     22 C         141.1484  142.5910  164.4859 C.ar    1  UNL1       -0.0198
     23 C         139.7757  143.1882  164.3899 C.ar    1  UNL1        0.0072
     24 C         139.0887  143.2790  163.0596 C.ar    1  UNL1        0.0586
     25 CL        137.7161  143.8761  162.9635 Cl      1  UNL1       -0.0822
     26 C         139.7745  142.7728  161.8252 C.ar    1  UNL1        0.0263
     27 C         141.1472  142.1758  161.9213 C.ar    1  UNL1        0.0540
     28 C         141.8341  142.0849  163.2516 C.ar    1  UNL1        0.0107
     29 C         140.6191  139.3874  160.9486 C.2     1  UNL1        0.2485
     30 O         139.1661  139.3619  160.5773 O.2     1  UNL1       -0.2727
     31 N         141.1225  138.5249  162.0679 N.am    1  UNL1       -0.2748
     32 C         142.5756  138.5504  162.4391 C.3     1  UNL1        0.1150
     33 C         140.1728  137.6370  162.8159 C.3     1  UNL1        0.1091
     34 C         139.3977  138.1795  163.9799 C.3     1  UNL1        0.0741
     35 C         138.9488  139.6000  164.1551 C.3     1  UNL1        0.0189
     36 C         138.2091  139.6953  165.4566 C.3     1  UNL1        0.0185
     37 C         138.2009  138.3336  166.0858 C.3     1  UNL1        0.0686
     38 N         138.9355  137.3969  165.1732 N.3     1  UNL1       -0.2972
     39 H         138.3135  136.6457  164.8746 H       1  UNL1        0.1233
@<TRIPOS>BOND
     1    21    22    1
     2    22    23   ar
     3    23    24   ar
     4    24    25    1
     5    24    26   ar
     6    26    27   ar
     7    27     1    1
     8     1     2    1
     9     2     3    2
    10     3     4    1
    11     4     5   ar
    12     5     6   ar
    13     6     7    1
    14     6     8   ar
    15     8    12    1
    16    12    13   ar
    17    13    14   ar
    18    14    15    1
    19    14    16   ar
    20    16    17   ar
    21    17    18   ar
    22    18    19    1
    23     8     9   ar
    24     9    10   ar
    25    10    11    1
    26    11    29    1
    27    29    30    2
    28    29    31   am
    29    31    32    1
    30    31    33    1
    31    34    33    1
    32    34    35    1
    33    35    36    1
    34    36    37    1
    35    37    38    1
    36    27    28   ar
    37    28    22   ar
    38    11     1    1
    39    38    34    1
    40    10     4   ar
    41    18    12   ar
    42    15    20    1
    43    38    39    1
@<TRIPOS>MOLECULE
*****
 39 43 0 0 0
SMALL
GASTEIGER

@<TRIPOS>ATOM
      1 N         143.1030  139.9755  161.9950 N.pl3   1  UNL1       -0.2598
      2 C         143.9895  138.7966  162.2668 C.2     1  UNL1        0.1681
      3 N         144.1592  138.2935  163.6697 N.2     1  UNL1       -0.2278
      4 C         143.4423  138.9694  164.8007 C.ar    1  UNL1        0.0806
      5 C         143.6120  138.4663  166.2036 C.ar    1  UNL1        0.0146
      6 C         142.8951  139.1422  167.3347 C.ar    1  UNL1       -0.0203
      7 C         143.0648  138.6391  168.7375 C.3     1  UNL1        0.0311
      8 C         142.0085  140.3213  167.0627 C.ar    1  UNL1       -0.0018
      9 C         141.8388  140.8243  165.6599 C.ar    1  UNL1       -0.0009
     10 C         142.5557  140.1484  164.5288 C.ar    1  UNL1        0.0225
     11 C         142.3861  140.6515  163.1260 C.3     1  UNL1        0.1793
     12 C         141.2916  140.9972  168.1937 C.ar    1  UNL1        0.0302
     13 C         140.0389  140.3928  168.7556 C.ar    1  UNL1        0.0388
     14 C         139.3220  141.0687  169.8866 C.ar    1  UNL1        0.1338
     15 O         138.0694  140.4644  170.4484 O.3     1  UNL1       -0.5055
     16 C         139.8578  142.3490  170.4558 C.ar    1  UNL1        0.0389
     17 C         141.1104  142.9533  169.8939 C.ar    1  UNL1        0.0327
     18 C         141.8273  142.2774  168.7629 C.ar    1  UNL1        0.1403
     19 F         143.0800  142.8817  168.2011 F       1  UNL1       -0.2042
     20 H         137.7347  139.6647  170.0929 H       1  UNL1        0.2922
     21 C         144.9175  142.6396  157.9194 C.3     1  UNL1        0.0311
     22 C         143.8406  141.8107  158.5543 C.ar    1  UNL1       -0.0198
     23 C         142.5939  141.4849  157.7862 C.ar    1  UNL1        0.0072
     24 C         141.5169  140.6560  158.4212 C.ar    1  UNL1        0.0586
     25 CL        140.2703  140.3303  157.6532 Cl      1  UNL1       -0.0822
     26 C         141.6867  140.1529  159.8241 C.ar    1  UNL1        0.0263
     27 C         142.9333  140.4787  160.5920 C.ar    1  UNL1        0.0540
     28 C         144.0102  141.3075  159.9571 C.ar    1  UNL1        0.0107
     29 C         141.4995  141.8305  162.8541 C.2     1  UNL1        0.2485
     30 O         140.0450  141.6215  162.5529 O.2     1  UNL1       -0.2727
     31 N         142.0674  143.2185  162.8833 N.am    1  UNL1       -0.2748
     32 C         143.5220  143.4275  163.1845 C.3     1  UNL1        0.1150
     33 C         141.1809  144.3975  162.6114 C.3     1  UNL1        0.1091
     34 C         139.8047  144.4539  163.2055 C.3     1  UNL1        0.0741
     35 C         139.4785  144.6165  164.6605 C.3     1  UNL1        0.0189
     36 C         137.9853  144.6207  164.8032 C.3     1  UNL1        0.0185
     37 C         137.3887  144.4608  163.4362 C.3     1  UNL1        0.0686
     38 N         138.5131  144.3577  162.4488 N.3     1  UNL1       -0.2972
     39 H         138.4507  145.1187  161.7725 H       1  UNL1        0.1233
@<TRIPOS>BOND
     1    21    22    1
     2    22    23   ar
     3    23    24   ar
     4    24    25    1
     5    24    26   ar
     6    26    27   ar
     7    27     1    1
     8     1     2    1
     9     2     3    2
    10     3     4    1
    11     4     5   ar
    12     5     6   ar
    13     6     7    1
    14     6     8   ar
    15     8    12    1
    16    12    13   ar
    17    13    14   ar
    18    14    15    1
    19    14    16   ar
    20    16    17   ar
    21    17    18   ar
    22    18    19    1
    23     8     9   ar
    24     9    10   ar
    25    10    11    1
    26    11    29    1
    27    29    30    2
    28    29    31   am
    29    31    32    1
    30    31    33    1
    31    34    33    1
    32    34    35    1
    33    35    36    1
    34    36    37    1
    35    37    38    1
    36    27    28   ar
    37    28    22   ar
    38    11     1    1
    39    38    34    1
    40    10     4   ar
    41    18    12   ar
    42    15    20    1
    43    38    39    1
@<TRIPOS>MOLECULE
*****
 39 43 0 0 0
SMALL
GASTEIGER

@<TRIPOS>ATOM
      1 N         142.9600  140.0683  162.1376 N.pl3   1  UNL1       -0.2598
      2 C         143.6180  138.7436  162.3872 C.2     1  UNL1        0.1681
      3 N         143.7434  138.2206  163.7874 N.2     1  UNL1       -0.2278
      4 C         143.2108  139.0221  164.9380 C.ar    1  UNL1        0.0806
      5 C         143.3363  138.4990  166.3382 C.ar    1  UNL1        0.0146
      6 C         142.8037  139.3006  167.4888 C.ar    1  UNL1       -0.0203
      7 C         142.9291  138.7776  168.8890 C.3     1  UNL1        0.0311
      8 C         142.1457  140.6253  167.2391 C.ar    1  UNL1       -0.0018
      9 C         142.0203  141.1484  165.8389 C.ar    1  UNL1       -0.0009
     10 C         142.5529  140.3468  164.6883 C.ar    1  UNL1        0.0225
     11 C         142.4275  140.8699  163.2881 C.3     1  UNL1        0.1793
     12 C         141.6132  141.4269  168.3897 C.ar    1  UNL1        0.0302
     13 C         142.5057  142.3984  169.1038 C.ar    1  UNL1        0.0388
     14 C         141.9731  143.2000  170.2543 C.ar    1  UNL1        0.1338
     15 O         142.8655  144.1714  170.9684 O.3     1  UNL1       -0.5055
     16 C         140.5481  143.0301  170.6909 C.ar    1  UNL1        0.0389
     17 C         139.6557  142.0587  169.9769 C.ar    1  UNL1        0.0327
     18 C         140.1882  141.2571  168.8263 C.ar    1  UNL1        0.1403
     19 F         139.2958  140.2856  168.1123 F       1  UNL1       -0.2042
     20 H         143.7557  144.2776  170.6957 H       1  UNL1        0.2922
     21 C         140.2116  140.5927  157.7591 C.3     1  UNL1        0.0311
     22 C         141.4604  140.8536  158.5481 C.ar    1  UNL1       -0.0198
     23 C         142.5837  141.6376  157.9368 C.ar    1  UNL1        0.0072
     24 C         143.8325  141.8985  158.7258 C.ar    1  UNL1        0.0586
     25 CL        144.9558  142.6824  158.1146 Cl      1  UNL1       -0.0822
     26 C         143.9579  141.3753  160.1261 C.ar    1  UNL1        0.0263
     27 C         142.8346  140.5914  160.7373 C.ar    1  UNL1        0.0540
     28 C         141.5858  140.3305  159.9483 C.ar    1  UNL1        0.0107
     29 C         141.7695  142.1946  163.0384 C.2     1  UNL1        0.2485
     30 O         140.2911  142.2636  162.7948 O.2     1  UNL1       -0.2727
     31 N         142.5901  143.4502  163.0324 N.am    1  UNL1       -0.2748
     32 C         144.0686  143.3812  163.2761 C.3     1  UNL1        0.1150
     33 C         141.9322  144.7749  162.7828 C.3     1  UNL1        0.1091
     34 C         141.4310  145.1167  161.4109 C.3     1  UNL1        0.0741
     35 C         140.1108  145.7509  161.0871 C.3     1  UNL1        0.0189
     36 C         140.0259  145.9105  159.5980 C.3     1  UNL1        0.0185
     37 C         141.2938  145.3750  159.0015 C.3     1  UNL1        0.0686
     38 N         142.1621  144.8844  160.1219 N.3     1  UNL1       -0.2972
     39 H         143.0437  145.3974  160.1267 H       1  UNL1        0.1233
@<TRIPOS>BOND
     1    21    22    1
     2    22    23   ar
     3    23    24   ar
     4    24    25    1
     5    24    26   ar
     6    26    27   ar
     7    27     1    1
     8     1     2    1
     9     2     3    2
    10     3     4    1
    11     4     5   ar
    12     5     6   ar
    13     6     7    1
    14     6     8   ar
    15     8    12    1
    16    12    13   ar
    17    13    14   ar
    18    14    15    1
    19    14    16   ar
    20    16    17   ar
    21    17    18   ar
    22    18    19    1
    23     8     9   ar
    24     9    10   ar
    25    10    11    1
    26    11    29    1
    27    29    30    2
    28    29    31   am
    29    31    32    1
    30    31    33    1
    31    34    33    1
    32    34    35    1
    33    35    36    1
    34    36    37    1
    35    37    38    1
    36    27    28   ar
    37    28    22   ar
    38    11     1    1
    39    38    34    1
    40    10     4   ar
    41    18    12   ar
    42    15    20    1
    43    38    39    1
@<TRIPOS>MOLECULE
*****
 39 43 0 0 0
SMALL
GASTEIGER

@<TRIPOS>ATOM
      1 N         139.8879  143.6152  161.0759 N.pl3   1  UNL1       -0.2598
      2 C         140.4435  144.8077  160.3553 C.2     1  UNL1        0.1681
      3 N         140.3390  144.8972  158.8617 N.2     1  UNL1       -0.2278
      4 C         139.6789  143.7942  158.0886 C.ar    1  UNL1        0.0806
      5 C         139.5743  143.8837  156.5949 C.ar    1  UNL1        0.0146
      6 C         138.9142  142.7807  155.8218 C.ar    1  UNL1       -0.0203
      7 C         138.8097  142.8702  154.3281 C.3     1  UNL1        0.0311
      8 C         138.3586  141.5882  156.5424 C.ar    1  UNL1       -0.0018
      9 C         138.4632  141.4987  158.0361 C.ar    1  UNL1       -0.0009
     10 C         139.1233  142.6017  158.8091 C.ar    1  UNL1        0.0225
     11 C         139.2278  142.5122  160.3028 C.3     1  UNL1        0.1793
     12 C         137.6985  140.4852  155.7693 C.ar    1  UNL1        0.0302
     13 C         138.5042  139.3076  155.3063 C.ar    1  UNL1        0.0388
     14 C         137.8441  138.2047  154.5332 C.ar    1  UNL1        0.1338
     15 O         138.6497  137.0271  154.0701 O.3     1  UNL1       -0.5055
     16 C         136.3783  138.2792  154.2231 C.ar    1  UNL1        0.0389
     17 C         135.5728  139.4567  154.6862 C.ar    1  UNL1        0.0327
     18 C         136.2329  140.5597  155.4593 C.ar    1  UNL1        0.1403
     19 F         135.4273  141.7372  155.9223 F       1  UNL1       -0.2042
     20 H         139.5653  136.9806  154.2638 H       1  UNL1        0.2922
     21 C         138.2580  145.0544  165.7952 C.3     1  UNL1        0.0311
     22 C         139.1774  144.2453  164.9292 C.ar    1  UNL1       -0.0198
     23 C         140.2014  143.3466  165.5570 C.ar    1  UNL1        0.0072
     24 C         141.1208  142.5374  164.6910 C.ar    1  UNL1        0.0586
     25 CL        142.1447  141.6388  165.3186 Cl      1  UNL1       -0.0822
     26 C         141.0163  142.6270  163.1973 C.ar    1  UNL1        0.0263
     27 C         139.9924  143.5256  162.5696 C.ar    1  UNL1        0.0540
     28 C         139.0730  144.3348  163.4356 C.ar    1  UNL1        0.0107
     29 C         138.6722  141.3196  161.0234 C.2     1  UNL1        0.2485
     30 O         137.2906  141.3714  161.6051 O.2     1  UNL1       -0.2727
     31 N         139.4983  140.0754  161.1623 N.am    1  UNL1       -0.2748
     32 C         140.8800  140.0236  160.5806 C.3     1  UNL1        0.1150
     33 C         138.9428  138.8829  161.8829 C.3     1  UNL1        0.1091
     34 C         138.7679  138.9209  163.3722 C.3     1  UNL1        0.0741
     35 C         138.9700  137.7705  164.3134 C.3     1  UNL1        0.0189
     36 C         138.6871  138.2546  165.7046 C.3     1  UNL1        0.0185
     37 C         138.3102  139.7042  165.6234 C.3     1  UNL1        0.0686
     38 N         138.3601  140.1159  164.1819 N.3     1  UNL1       -0.2972
     39 H         139.0408  140.8656  164.0594 H       1  UNL1        0.1233
@<TRIPOS>BOND
     1    21    22    1
     2    22    23   ar
     3    23    24   ar
     4    24    25    1
     5    24    26   ar
     6    26    27   ar
     7    27     1    1
     8     1     2    1
     9     2     3    2
    10     3     4    1
    11     4     5   ar
    12     5     6   ar
    13     6     7    1
    14     6     8   ar
    15     8    12    1
    16    12    13   ar
    17    13    14   ar
    18    14    15    1
    19    14    16   ar
    20    16    17   ar
    21    17    18   ar
    22    18    19    1
    23     8     9   ar
    24     9    10   ar
    25    10    11    1
    26    11    29    1
    27    29    30    2
    28    29    31   am
    29    31    32    1
    30    31    33    1
    31    34    33    1
    32    34    35    1
    33    35    36    1
    34    36    37    1
    35    37    38    1
    36    27    28   ar
    37    28    22   ar
    38    11     1    1
    39    38    34    1
    40    10     4   ar
    41    18    12   ar
    42    15    20    1
    43    38    39    1
@<TRIPOS>MOLECULE
*****
 39 43 0 0 0
SMALL
GASTEIGER

@<TRIPOS>ATOM
      1 N         142.8978  143.4086  161.9078 N.pl3   1  UNL1       -0.2598
      2 C         144.3030  143.7578  162.2993 C.2     1  UNL1        0.1681
      3 N         144.7367  143.6304  163.7296 N.2     1  UNL1       -0.2278
      4 C         143.7652  143.1538  164.7683 C.ar    1  UNL1        0.0806
      5 C         144.1990  143.0264  166.1986 C.ar    1  UNL1        0.0146
      6 C         143.2274  142.5498  167.2373 C.ar    1  UNL1       -0.0203
      7 C         143.6611  142.4224  168.6676 C.3     1  UNL1        0.0311
      8 C         141.8221  142.2006  166.8458 C.ar    1  UNL1       -0.0018
      9 C         141.3884  142.3280  165.4155 C.ar    1  UNL1       -0.0009
     10 C         142.3600  142.8046  164.3768 C.ar    1  UNL1        0.0225
     11 C         141.9262  142.9320  162.9466 C.3     1  UNL1        0.1793
     12 C         140.8506  141.7240  167.8845 C.ar    1  UNL1        0.0302
     13 C         140.5401  142.5857  169.0725 C.ar    1  UNL1        0.0388
     14 C         139.5685  142.1091  170.1112 C.ar    1  UNL1        0.1338
     15 O         139.2580  142.9706  171.2991 O.3     1  UNL1       -0.5055
     16 C         138.9075  140.7708  169.9620 C.ar    1  UNL1        0.0389
     17 C         139.2180  139.9092  168.7741 C.ar    1  UNL1        0.0327
     18 C         140.1896  140.3858  167.7353 C.ar    1  UNL1        0.1403
     19 F         140.5001  139.5242  166.5474 F       1  UNL1       -0.2042
     20 H         139.6709  143.8066  171.3923 H       1  UNL1        0.2922
     21 C         142.9378  141.6474  157.0194 C.3     1  UNL1        0.0311
     22 C         142.4840  142.6554  158.0333 C.ar    1  UNL1       -0.0198
     23 C         141.5965  143.7908  157.6170 C.ar    1  UNL1        0.0072
     24 C         141.1428  144.7988  158.6309 C.ar    1  UNL1        0.0586
     25 CL        140.2553  145.9341  158.2147 Cl      1  UNL1       -0.0822
     26 C         141.5765  144.6714  160.0612 C.ar    1  UNL1        0.0263
     27 C         142.4640  143.5360  160.4775 C.ar    1  UNL1        0.0540
     28 C         142.9178  142.5281  159.4636 C.ar    1  UNL1        0.0107
     29 C         140.5209  142.5828  162.5550 C.2     1  UNL1        0.2485
     30 O         139.4254  143.5955  162.7107 O.2     1  UNL1       -0.2727
     31 N         140.2113  141.2210  162.0078 N.am    1  UNL1       -0.2748
     32 C         141.3069  140.2083  161.8521 C.3     1  UNL1        0.1150
     33 C         138.8060  140.8718  161.6162 C.3     1  UNL1        0.1091
     34 C         138.3524  141.0641  160.1994 C.3     1  UNL1        0.0741
     35 C         138.5145  142.3123  159.3835 C.3     1  UNL1        0.0189
     36 C         137.9194  142.0616  158.0296 C.3     1  UNL1        0.0185
     37 C         137.3895  140.6585  158.0088 C.3     1  UNL1        0.0686
     38 N         137.6572  140.0420  159.3498 N.3     1  UNL1       -0.2972
     39 H         138.2516  139.2204  159.2406 H       1  UNL1        0.1233
@<TRIPOS>BOND
     1    21    22    1
     2    22    23   ar
     3    23    24   ar
     4    24    25    1
     5    24    26   ar
     6    26    27   ar
     7    27     1    1
     8     1     2    1
     9     2     3    2
    10     3     4    1
    11     4     5   ar
    12     5     6   ar
    13     6     7    1
    14     6     8   ar
    15     8    12    1
    16    12    13   ar
    17    13    14   ar
    18    14    15    1
    19    14    16   ar
    20    16    17   ar
    21    17    18   ar
    22    18    19    1
    23     8     9   ar
    24     9    10   ar
    25    10    11    1
    26    11    29    1
    27    29    30    2
    28    29    31   am
    29    31    32    1
    30    31    33    1
    31    34    33    1
    32    34    35    1
    33    35    36    1
    34    36    37    1
    35    37    38    1
    36    27    28   ar
    37    28    22   ar
    38    11     1    1
    39    38    34    1
    40    10     4   ar
    41    18    12   ar
    42    15    20    1
    43    38    39    1
