@<TRIPOS>MOLECULE
*****
 33 37 0 0 0
SMALL
GASTEIGER

@<TRIPOS>ATOM
      1 C         142.9573  141.7024  166.2827 C.2     1  UNL1        0.3056
      2 C         142.7432  142.4778  167.5487 C.3     1  UNL1        0.1439
      3 C         141.6067  142.1243  168.4616 C.2     1  UNL1        0.0029
      4 C         141.3926  142.8997  169.7277 C.2     1  UNL1        0.0146
      5 C         140.2561  142.5462  170.6405 C.2     1  UNL1        0.0886
      6 N         139.3337  141.4173  170.2874 N.am    1  UNL1       -0.1739
      7 C         139.5478  140.6419  169.0214 C.2     1  UNL1        0.2759
      8 O         138.6254  139.5129  168.6682 O.2     1  UNL1       -0.2678
      9 C         140.6843  140.9954  168.1085 C.2     1  UNL1        0.1344
     10 C         140.8984  140.2200  166.8424 C.2     1  UNL1        0.3328
     11 N         142.0349  140.5735  165.9295 N.2     1  UNL1       -0.0042
     12 N         144.0938  142.0560  165.3697 N.pl3   1  UNL1       -0.2241
     13 H         145.0196  141.8497  165.6335 H       1  UNL1        0.2918
     14 N         146.0811  141.8367  163.1331 N.3     1  UNL1       -0.3170
     15 C         144.8134  142.6140  162.9365 C.3     1  UNL1        0.1239
     16 C         144.5394  143.2817  161.6215 C.3     1  UNL1        0.1616
     17 O         143.2717  144.0591  161.4249 O.3     1  UNL1       -0.3521
     18 C         142.2780  144.1687  162.5433 C.3     1  UNL1        0.1464
     19 C         142.5521  143.5010  163.8582 C.3     1  UNL1        0.0799
     20 C         143.8198  142.7237  164.0548 C.3     1  UNL1        0.1755
     21 H         146.6348  141.8670  162.2771 H       1  UNL1        0.1190
     22 H         145.8545  140.8678  163.3573 H       1  UNL1        0.1190
     23 N         139.9760  139.0910  166.4892 N.pl3   1  UNL1       -0.2003
     24 H         139.7702  138.3966  167.1560 H       1  UNL1        0.2983
     25 C         139.3673  139.0201  165.1202 C.2     1  UNL1        0.1391
     26 C         139.4521  137.7501  164.3265 C.2     1  UNL1        0.0378
     27 C         138.8434  137.6792  162.9574 C.2     1  UNL1        0.0030
     28 C         138.1499  138.8783  162.3820 C.2     1  UNL1       -0.0018
     29 C         138.0651  140.1483  163.1755 C.2     1  UNL1        0.0089
     30 C         137.4497  141.4822  162.8723 C.2     1  UNL1        0.0182
     31 C         137.6780  142.3775  164.0539 C.2     1  UNL1        0.0937
     32 N         138.4346  141.5970  165.0875 N.2     1  UNL1       -0.2583
     33 C         138.6738  140.2192  164.5447 C.3     1  UNL1        0.1844
@<TRIPOS>BOND
     1    15    14    1
     2    15    16    1
     3    16    17    1
     4    17    18    1
     5    18    19    1
     6    19    20    1
     7    20    12    1
     8    12     1    1
     9     1     2    1
    10     2     3    1
    11     3     4    2
    12     4     5    1
    13     5     6    2
    14     6     7    1
    15     7     8    2
    16     7     9    1
    17     9    10    2
    18    10    23    1
    19    23    25    1
    20    25    26    2
    21    26    27    1
    22    27    28    2
    23    28    29    1
    24    29    30    2
    25    30    31    1
    26    31    32    2
    27    32    33    1
    28    10    11    1
    29    20    15    1
    30    11     1    2
    31     9     3    1
    32    33    25    1
    33    33    29    1
    34    14    21    1
    35    14    22    1
    36    12    13    1
    37    23    24    1
@<TRIPOS>MOLECULE
*****
 33 37 0 0 0
SMALL
GASTEIGER

@<TRIPOS>ATOM
      1 C         143.2140  142.1526  166.4754 C.2     1  UNL1        0.3056
      2 C         143.2098  142.4303  167.9494 C.3     1  UNL1        0.1439
      3 C         142.1305  141.8551  168.8179 C.2     1  UNL1        0.0029
      4 C         142.1263  142.1327  170.2920 C.2     1  UNL1        0.0146
      5 C         141.0470  141.5575  171.1604 C.2     1  UNL1        0.0886
      6 N         139.9720  140.7045  170.5548 N.am    1  UNL1       -0.1739
      7 C         139.9762  140.4268  169.0808 C.2     1  UNL1        0.2759
      8 O         138.9011  139.5739  168.4752 O.2     1  UNL1       -0.2678
      9 C         141.0554  141.0021  168.2123 C.2     1  UNL1        0.1344
     10 C         141.0597  140.7244  166.7382 C.2     1  UNL1        0.3328
     11 N         142.1389  141.2997  165.8698 N.2     1  UNL1       -0.0042
     12 N         144.2933  142.7279  165.6068 N.pl3   1  UNL1       -0.2241
     13 H         145.2112  142.8115  165.9527 H       1  UNL1        0.2918
     14 N         146.0215  141.8499  163.3173 N.3     1  UNL1       -0.3170
     15 C         144.8380  142.7368  163.0666 C.3     1  UNL1        0.1239
     16 C         144.5187  143.1847  161.6711 C.3     1  UNL1        0.1616
     17 O         143.3353  144.0717  161.4204 O.3     1  UNL1       -0.3521
     18 C         142.4712  144.5107  162.5652 C.3     1  UNL1        0.1464
     19 C         142.7905  144.0628  163.9607 C.3     1  UNL1        0.0799
     20 C         143.9739  143.1758  164.2114 C.3     1  UNL1        0.1755
     21 H         146.4913  141.6521  162.4338 H       1  UNL1        0.1190
     22 H         145.7079  140.9755  163.7388 H       1  UNL1        0.1190
     23 N         139.9846  139.8714  166.1326 N.pl3   1  UNL1       -0.2003
     24 H         139.8472  138.9510  166.4538 H       1  UNL1        0.2983
     25 C         139.1190  140.4208  165.0377 C.2     1  UNL1        0.1391
     26 C         138.6071  141.8284  165.1212 C.2     1  UNL1        0.0378
     27 C         137.7415  142.3778  164.0263 C.2     1  UNL1        0.0030
     28 C         137.3878  141.5197  162.8479 C.2     1  UNL1       -0.0018
     29 C         137.8996  140.1122  162.7644 C.2     1  UNL1        0.0089
     30 C         137.7189  139.0380  161.7333 C.2     1  UNL1        0.0182
     31 C         138.4729  137.8247  162.1908 C.2     1  UNL1        0.0937
     32 N         139.1195  138.1490  163.5048 N.2     1  UNL1       -0.2583
     33 C         138.7653  139.5628  163.8594 C.3     1  UNL1        0.1844
@<TRIPOS>BOND
     1    15    14    1
     2    15    16    1
     3    16    17    1
     4    17    18    1
     5    18    19    1
     6    19    20    1
     7    20    12    1
     8    12     1    1
     9     1     2    1
    10     2     3    1
    11     3     4    2
    12     4     5    1
    13     5     6    2
    14     6     7    1
    15     7     8    2
    16     7     9    1
    17     9    10    2
    18    10    23    1
    19    23    25    1
    20    25    26    2
    21    26    27    1
    22    27    28    2
    23    28    29    1
    24    29    30    2
    25    30    31    1
    26    31    32    2
    27    32    33    1
    28    10    11    1
    29    20    15    1
    30    11     1    2
    31     9     3    1
    32    33    25    1
    33    33    29    1
    34    14    21    1
    35    14    22    1
    36    12    13    1
    37    23    24    1
@<TRIPOS>MOLECULE
*****
 33 37 0 0 0
SMALL
GASTEIGER

@<TRIPOS>ATOM
      1 C         139.1067  140.1755  165.6122 C.2     1  UNL1        0.3056
      2 C         139.3137  140.5476  167.0505 C.3     1  UNL1        0.1439
      3 C         140.5739  140.1424  167.7561 C.2     1  UNL1        0.0029
      4 C         140.7810  140.5144  169.1944 C.2     1  UNL1        0.0146
      5 C         142.0411  140.1092  169.8999 C.2     1  UNL1        0.0886
      6 N         143.0942  139.3320  169.1672 N.am    1  UNL1       -0.1739
      7 C         142.8871  138.9599  167.7289 C.2     1  UNL1        0.2759
      8 O         143.9402  138.1826  166.9962 O.2     1  UNL1       -0.2678
      9 C         141.6270  139.3651  167.0234 C.2     1  UNL1        0.1344
     10 C         141.4199  138.9930  165.5850 C.2     1  UNL1        0.3328
     11 N         140.1598  139.3983  164.8795 N.2     1  UNL1       -0.0042
     12 N         137.8465  140.5807  164.9066 N.pl3   1  UNL1       -0.2241
     13 H         136.9872  140.1728  165.1605 H       1  UNL1        0.2918
     14 N         138.2866  139.7270  162.0646 N.3     1  UNL1       -0.3170
     15 C         138.1156  141.1805  162.3931 C.3     1  UNL1        0.1239
     16 C         138.1647  142.2072  161.3006 C.3     1  UNL1        0.1616
     17 O         137.9937  143.6608  161.6292 O.3     1  UNL1       -0.3521
     18 C         137.7737  144.0876  163.0503 C.3     1  UNL1        0.1464
     19 C         137.7246  143.0609  164.1427 C.3     1  UNL1        0.0799
     20 C         137.8956  141.6074  163.8141 C.3     1  UNL1        0.1755
     21 H         138.4250  139.6195  161.0597 H       1  UNL1        0.1190
     22 H         137.4527  139.2135  162.3498 H       1  UNL1        0.1190
     23 N         142.4730  138.2158  164.8523 N.pl3   1  UNL1       -0.2003
     24 H         142.7955  137.3597  165.2162 H       1  UNL1        0.2983
     25 C         143.0347  138.7428  163.5652 C.2     1  UNL1        0.1391
     26 C         142.7187  138.0534  162.2710 C.2     1  UNL1        0.0378
     27 C         143.2804  138.5804  160.9838 C.2     1  UNL1        0.0030
     28 C         144.1581  139.7967  160.9909 C.2     1  UNL1       -0.0018
     29 C         144.4741  140.4861  162.2850 C.2     1  UNL1        0.0089
     30 C         145.3032  141.6954  162.6017 C.2     1  UNL1        0.0182
     31 C         145.2538  141.9158  164.0847 C.2     1  UNL1        0.0937
     32 N         144.3943  140.8427  164.6844 N.2     1  UNL1       -0.2583
     33 C         143.9124  139.9591  163.5722 C.3     1  UNL1        0.1844
@<TRIPOS>BOND
     1    15    14    1
     2    15    16    1
     3    16    17    1
     4    17    18    1
     5    18    19    1
     6    19    20    1
     7    20    12    1
     8    12     1    1
     9     1     2    1
    10     2     3    1
    11     3     4    2
    12     4     5    1
    13     5     6    2
    14     6     7    1
    15     7     8    2
    16     7     9    1
    17     9    10    2
    18    10    23    1
    19    23    25    1
    20    25    26    2
    21    26    27    1
    22    27    28    2
    23    28    29    1
    24    29    30    2
    25    30    31    1
    26    31    32    2
    27    32    33    1
    28    10    11    1
    29    20    15    1
    30    11     1    2
    31     9     3    1
    32    33    25    1
    33    33    29    1
    34    14    21    1
    35    14    22    1
    36    12    13    1
    37    23    24    1
@<TRIPOS>MOLECULE
*****
 33 37 0 0 0
SMALL
GASTEIGER

@<TRIPOS>ATOM
      1 C         139.1663  140.1353  166.5068 C.2     1  UNL1        0.3056
      2 C         139.0419  139.8807  167.9798 C.3     1  UNL1        0.1439
      3 C         140.0661  140.4341  168.9258 C.2     1  UNL1        0.0029
      4 C         139.9417  140.1795  170.3987 C.2     1  UNL1        0.0146
      5 C         140.9659  140.7329  171.3446 C.2     1  UNL1        0.0886
      6 N         142.1145  141.5408  170.8175 N.am    1  UNL1       -0.1739
      7 C         142.2390  141.7954  169.3446 C.2     1  UNL1        0.2759
      8 O         143.3876  142.6034  168.8175 O.2     1  UNL1       -0.2678
      9 C         141.2148  141.2421  168.3987 C.2     1  UNL1        0.1344
     10 C         141.3392  141.4967  166.9256 C.2     1  UNL1        0.3328
     11 N         140.3150  140.9433  165.9797 N.2     1  UNL1       -0.0042
     12 N         138.1421  139.5819  165.5608 N.pl3   1  UNL1       -0.2241
     13 H         137.2139  139.4513  165.8617 H       1  UNL1        0.2918
     14 N         136.9749  141.1000  163.2516 N.3     1  UNL1       -0.3170
     15 C         137.9486  139.9866  163.0019 C.3     1  UNL1        0.1239
     16 C         138.3387  139.6323  161.5974 C.3     1  UNL1        0.1616
     17 O         139.3123  138.5189  161.3477 O.3     1  UNL1       -0.3521
     18 C         139.8959  137.7598  162.5025 C.3     1  UNL1        0.1464
     19 C         139.5059  138.1142  163.9068 C.3     1  UNL1        0.0799
     20 C         138.5322  139.2276  164.1565 C.3     1  UNL1        0.1755
     21 H         136.6826  141.5021  162.3609 H       1  UNL1        0.1190
     22 H         137.4205  141.8202  163.8199 H       1  UNL1        0.1190
     23 N         142.4878  142.3046  166.3986 N.pl3   1  UNL1       -0.2003
     24 H         142.7074  143.1729  166.8073 H       1  UNL1        0.2983
     25 C         143.3018  141.7897  165.2487 C.2     1  UNL1        0.1391
     26 C         143.7422  140.3559  165.2241 C.2     1  UNL1        0.0378
     27 C         144.5562  139.8410  164.0743 C.2     1  UNL1        0.0030
     28 C         144.9299  140.7598  162.9490 C.2     1  UNL1       -0.0018
     29 C         144.4896  142.1934  162.9736 C.2     1  UNL1        0.0089
     30 C         144.7045  143.3260  162.0139 C.2     1  UNL1        0.0182
     31 C         144.0234  144.5410  162.5706 C.2     1  UNL1        0.0937
     32 N         143.3874  144.1593  163.8744 N.2     1  UNL1       -0.2583
     33 C         143.6755  142.7084  164.1234 C.3     1  UNL1        0.1844
@<TRIPOS>BOND
     1    15    14    1
     2    15    16    1
     3    16    17    1
     4    17    18    1
     5    18    19    1
     6    19    20    1
     7    20    12    1
     8    12     1    1
     9     1     2    1
    10     2     3    1
    11     3     4    2
    12     4     5    1
    13     5     6    2
    14     6     7    1
    15     7     8    2
    16     7     9    1
    17     9    10    2
    18    10    23    1
    19    23    25    1
    20    25    26    2
    21    26    27    1
    22    27    28    2
    23    28    29    1
    24    29    30    2
    25    30    31    1
    26    31    32    2
    27    32    33    1
    28    10    11    1
    29    20    15    1
    30    11     1    2
    31     9     3    1
    32    33    25    1
    33    33    29    1
    34    14    21    1
    35    14    22    1
    36    12    13    1
    37    23    24    1
@<TRIPOS>MOLECULE
*****
 33 37 0 0 0
SMALL
GASTEIGER

@<TRIPOS>ATOM
      1 C         142.5700  139.6591  166.4139 C.2     1  UNL1        0.3056
      2 C         142.7529  139.4272  167.8845 C.3     1  UNL1        0.1439
      3 C         142.1732  140.3941  168.8740 C.2     1  UNL1        0.0029
      4 C         142.3562  140.1622  170.3447 C.2     1  UNL1        0.0146
      5 C         141.7765  141.1291  171.3341 C.2     1  UNL1        0.0886
      6 N         141.0140  142.3279  170.8530 N.am    1  UNL1       -0.1739
      7 C         140.8310  142.5598  169.3824 C.2     1  UNL1        0.2759
      8 O         140.0685  143.7585  168.9013 O.2     1  UNL1       -0.2678
      9 C         141.4107  141.5929  168.3929 C.2     1  UNL1        0.1344
     10 C         141.2278  141.8247  166.9222 C.2     1  UNL1        0.3328
     11 N         141.8074  140.8578  165.9327 N.2     1  UNL1       -0.0042
     12 N         143.1496  138.6922  165.4243 N.pl3   1  UNL1       -0.2241
     13 H         144.0470  138.3153  165.5721 H       1  UNL1        0.2918
     14 N         144.4005  138.8702  162.7034 N.3     1  UNL1       -0.3170
     15 C         142.9874  138.3886  162.8492 C.3     1  UNL1        0.1239
     16 C         142.1998  137.9960  161.6344 C.3     1  UNL1        0.1616
     17 O         140.7867  137.5144  161.7802 O.3     1  UNL1       -0.3521
     18 C         140.1613  137.4254  163.1408 C.3     1  UNL1        0.1464
     19 C         140.9489  137.8180  164.3554 C.3     1  UNL1        0.0799
     20 C         142.3620  138.2996  164.2096 C.3     1  UNL1        0.1755
     21 H         144.6608  138.8670  161.7172 H       1  UNL1        0.1190
     22 H         145.0253  138.2528  163.2220 H       1  UNL1        0.1190
     23 N         140.4652  143.0235  166.4411 N.pl3   1  UNL1       -0.2003
     24 H         140.4989  143.8653  166.9505 H       1  UNL1        0.2983
     25 C         139.6513  142.9396  165.1839 C.2     1  UNL1        0.1391
     26 C         138.5479  141.9298  165.0708 C.2     1  UNL1        0.0378
     27 C         137.7340  141.8460  163.8136 C.2     1  UNL1        0.0030
     28 C         138.0235  142.7719  162.6696 C.2     1  UNL1       -0.0018
     29 C         139.1268  143.7817  162.7827 C.2     1  UNL1        0.0089
     30 C         139.6402  144.8187  161.8282 C.2     1  UNL1        0.0182
     31 C         140.7714  145.5435  162.4954 C.2     1  UNL1        0.0937
     32 N         140.9571  144.9544  163.8623 N.2     1  UNL1       -0.2583
     33 C         139.9408  143.8656  164.0399 C.3     1  UNL1        0.1844
@<TRIPOS>BOND
     1    15    14    1
     2    15    16    1
     3    16    17    1
     4    17    18    1
     5    18    19    1
     6    19    20    1
     7    20    12    1
     8    12     1    1
     9     1     2    1
    10     2     3    1
    11     3     4    2
    12     4     5    1
    13     5     6    2
    14     6     7    1
    15     7     8    2
    16     7     9    1
    17     9    10    2
    18    10    23    1
    19    23    25    1
    20    25    26    2
    21    26    27    1
    22    27    28    2
    23    28    29    1
    24    29    30    2
    25    30    31    1
    26    31    32    2
    27    32    33    1
    28    10    11    1
    29    20    15    1
    30    11     1    2
    31     9     3    1
    32    33    25    1
    33    33    29    1
    34    14    21    1
    35    14    22    1
    36    12    13    1
    37    23    24    1
@<TRIPOS>MOLECULE
*****
 33 37 0 0 0
SMALL
GASTEIGER

@<TRIPOS>ATOM
      1 C         140.2810  143.0161  166.6847 C.2     1  UNL1        0.3056
      2 C         140.3440  143.0416  168.1831 C.3     1  UNL1        0.1439
      3 C         141.0948  141.9725  168.9205 C.2     1  UNL1        0.0029
      4 C         141.1578  141.9980  170.4189 C.2     1  UNL1        0.0146
      5 C         141.9086  140.9290  171.1562 C.2     1  UNL1        0.0886
      6 N         142.5963  139.8346  170.3950 N.am    1  UNL1       -0.1739
      7 C         142.5332  139.8092  168.8966 C.2     1  UNL1        0.2759
      8 O         143.2209  138.7148  168.1354 O.2     1  UNL1       -0.2678
      9 C         141.7825  140.8781  168.1593 C.2     1  UNL1        0.1344
     10 C         141.7194  140.8528  166.6608 C.2     1  UNL1        0.3328
     11 N         140.9687  141.9217  165.9235 N.2     1  UNL1       -0.0042
     12 N         139.5302  144.0852  165.9473 N.pl3   1  UNL1       -0.2241
     13 H         139.2970  144.9262  166.4028 H       1  UNL1        0.2918
     14 N         140.9867  145.5300  163.7585 N.3     1  UNL1       -0.3170
     15 C         139.8631  144.5951  163.4217 C.3     1  UNL1        0.1239
     16 C         139.4677  144.3826  161.9904 C.3     1  UNL1        0.1616
     17 O         138.3441  143.4477  161.6535 O.3     1  UNL1       -0.3521
     18 C         137.6158  142.7253  162.7480 C.3     1  UNL1        0.1464
     19 C         138.0112  142.9378  164.1793 C.3     1  UNL1        0.0799
     20 C         139.1348  143.8727  164.5161 C.3     1  UNL1        0.1755
     21 H         141.3646  145.9306  162.9000 H       1  UNL1        0.1190
     22 H         141.7211  145.0171  164.2464 H       1  UNL1        0.1190
     23 N         142.4071  139.7584  165.8997 N.pl3   1  UNL1       -0.2003
     24 H         143.3484  139.5422  166.0908 H       1  UNL1        0.2983
     25 C         141.6607  138.9933  164.8473 C.2     1  UNL1        0.1391
     26 C         140.2439  138.5664  165.0934 C.2     1  UNL1        0.0378
     27 C         139.4976  137.8014  164.0410 C.2     1  UNL1        0.0030
     28 C         140.1679  137.4632  162.7425 C.2     1  UNL1       -0.0018
     29 C         141.5846  137.8900  162.4963 C.2     1  UNL1        0.0089
     30 C         142.5000  137.7023  161.3229 C.2     1  UNL1        0.0182
     31 C         143.8122  138.3513  161.6501 C.2     1  UNL1        0.0937
     32 N         143.7077  138.9402  163.0257 N.2     1  UNL1       -0.2583
     33 C         142.3311  138.6551  163.5487 C.3     1  UNL1        0.1844
@<TRIPOS>BOND
     1    15    14    1
     2    15    16    1
     3    16    17    1
     4    17    18    1
     5    18    19    1
     6    19    20    1
     7    20    12    1
     8    12     1    1
     9     1     2    1
    10     2     3    1
    11     3     4    2
    12     4     5    1
    13     5     6    2
    14     6     7    1
    15     7     8    2
    16     7     9    1
    17     9    10    2
    18    10    23    1
    19    23    25    1
    20    25    26    2
    21    26    27    1
    22    27    28    2
    23    28    29    1
    24    29    30    2
    25    30    31    1
    26    31    32    2
    27    32    33    1
    28    10    11    1
    29    20    15    1
    30    11     1    2
    31     9     3    1
    32    33    25    1
    33    33    29    1
    34    14    21    1
    35    14    22    1
    36    12    13    1
    37    23    24    1
@<TRIPOS>MOLECULE
*****
 33 37 0 0 0
SMALL
GASTEIGER

@<TRIPOS>ATOM
      1 C         142.8419  139.1755  165.6947 C.2     1  UNL1        0.3056
      2 C         142.7801  139.7162  167.0924 C.3     1  UNL1        0.1439
      3 C         141.4629  139.8057  167.8045 C.2     1  UNL1        0.0029
      4 C         141.4011  140.3464  169.2023 C.2     1  UNL1        0.0146
      5 C         140.0839  140.4358  169.9142 C.2     1  UNL1        0.0886
      6 N         138.8285  139.9845  169.2285 N.am    1  UNL1       -0.1739
      7 C         138.8903  139.4438  167.8307 C.2     1  UNL1        0.2759
      8 O         137.6349  138.9925  167.1450 O.2     1  UNL1       -0.2678
      9 C         140.2075  139.3544  167.1187 C.2     1  UNL1        0.1344
     10 C         140.2693  138.8136  165.7209 C.2     1  UNL1        0.3328
     11 N         141.5865  138.7242  165.0089 N.2     1  UNL1       -0.0042
     12 N         144.1592  139.0861  164.9826 N.pl3   1  UNL1       -0.2241
     13 H         144.8470  138.4559  165.2972 H       1  UNL1        0.2918
     14 N         143.2437  138.2258  162.2584 N.3     1  UNL1       -0.3170
     15 C         143.9706  139.5267  162.4292 C.3     1  UNL1        0.1239
     16 C         144.2398  140.3975  161.2378 C.3     1  UNL1        0.1616
     17 O         144.9668  141.6984  161.4086 O.3     1  UNL1       -0.3521
     18 C         145.4245  142.1285  162.7708 C.3     1  UNL1        0.1464
     19 C         145.1553  141.2578  163.9621 C.3     1  UNL1        0.0799
     20 C         144.4284  139.9569  163.7913 C.3     1  UNL1        0.1755
     21 H         143.0091  138.0940  161.2745 H       1  UNL1        0.1190
     22 H         142.3878  138.2392  162.8131 H       1  UNL1        0.1190
     23 N         139.0139  138.3623  165.0351 N.pl3   1  UNL1       -0.2003
     24 H         138.4908  137.6160  165.4073 H       1  UNL1        0.2983
     25 C         138.5556  139.0481  163.7823 C.2     1  UNL1        0.1391
     26 C         138.4061  138.2662  162.5110 C.2     1  UNL1        0.0378
     27 C         137.9478  138.9520  161.2582 C.2     1  UNL1        0.0030
     28 C         137.6389  140.4198  161.2766 C.2     1  UNL1       -0.0018
     29 C         137.7884  141.2017  162.5479 C.2     1  UNL1        0.0089
     30 C         137.5592  142.6489  162.8690 C.2     1  UNL1        0.0182
     31 C         137.8759  142.8575  164.3203 C.2     1  UNL1        0.0937
     32 N         138.3008  141.5392  164.8962 N.2     1  UNL1       -0.2583
     33 C         138.2467  140.5159  163.8008 C.3     1  UNL1        0.1844
@<TRIPOS>BOND
     1    15    14    1
     2    15    16    1
     3    16    17    1
     4    17    18    1
     5    18    19    1
     6    19    20    1
     7    20    12    1
     8    12     1    1
     9     1     2    1
    10     2     3    1
    11     3     4    2
    12     4     5    1
    13     5     6    2
    14     6     7    1
    15     7     8    2
    16     7     9    1
    17     9    10    2
    18    10    23    1
    19    23    25    1
    20    25    26    2
    21    26    27    1
    22    27    28    2
    23    28    29    1
    24    29    30    2
    25    30    31    1
    26    31    32    2
    27    32    33    1
    28    10    11    1
    29    20    15    1
    30    11     1    2
    31     9     3    1
    32    33    25    1
    33    33    29    1
    34    14    21    1
    35    14    22    1
    36    12    13    1
    37    23    24    1
@<TRIPOS>MOLECULE
*****
 33 37 0 0 0
SMALL
GASTEIGER

@<TRIPOS>ATOM
      1 C         141.4043  138.1196  163.3902 C.2     1  UNL1        0.3056
      2 C         140.1617  137.4786  163.9334 C.3     1  UNL1        0.1439
      3 C         139.5126  138.0287  165.1688 C.2     1  UNL1        0.0029
      4 C         138.2700  137.3878  165.7119 C.2     1  UNL1        0.0146
      5 C         137.6209  137.9379  166.9472 C.2     1  UNL1        0.0886
      6 N         138.2146  139.1289  167.6395 N.am    1  UNL1       -0.1739
      7 C         139.4572  139.7698  167.0964 C.2     1  UNL1        0.2759
      8 O         140.0508  140.9607  167.7886 O.2     1  UNL1       -0.2678
      9 C         140.1062  139.2197  165.8610 C.2     1  UNL1        0.1344
     10 C         141.3489  139.8606  165.3178 C.2     1  UNL1        0.3328
     11 N         141.9980  139.3105  164.0825 N.2     1  UNL1       -0.0042
     12 N         142.0534  137.5695  162.1548 N.pl3   1  UNL1       -0.2241
     13 H         142.3368  136.6271  162.1256 H       1  UNL1        0.2918
     14 N         144.5589  139.2053  161.9395 N.3     1  UNL1       -0.3170
     15 C         143.5235  139.2731  160.8563 C.3     1  UNL1        0.1239
     16 C         143.7408  140.1590  159.6654 C.3     1  UNL1        0.1616
     17 O         142.7054  140.2268  158.5822 O.3     1  UNL1       -0.3521
     18 C         141.4526  139.4088  158.6899 C.3     1  UNL1        0.1464
     19 C         141.2353  138.5230  159.8808 C.3     1  UNL1        0.0799
     20 C         142.2707  138.4552  160.9640 C.3     1  UNL1        0.1755
     21 H         145.3377  139.8206  161.7043 H       1  UNL1        0.1190
     22 H         144.8971  138.2470  162.0270 H       1  UNL1        0.1190
     23 N         141.9426  141.0516  166.0101 N.pl3   1  UNL1       -0.2003
     24 H         142.2695  140.9709  166.9352 H       1  UNL1        0.2983
     25 C         142.0381  142.3655  165.2928 C.2     1  UNL1        0.1391
     26 C         143.3821  142.9398  164.9552 C.2     1  UNL1        0.0378
     27 C         143.4776  144.2537  164.2380 C.2     1  UNL1        0.0030
     28 C         142.2291  144.9933  163.8582 C.2     1  UNL1       -0.0018
     29 C         140.8852  144.4191  164.1957 C.2     1  UNL1        0.0089
     30 C         139.4912  144.9159  163.9509 C.2     1  UNL1        0.0182
     31 C         138.5341  143.9091  164.5168 C.2     1  UNL1        0.0937
     32 N         139.3366  142.7900  165.1115 N.2     1  UNL1       -0.2583
     33 C         140.7896  143.1052  164.9130 C.3     1  UNL1        0.1844
@<TRIPOS>BOND
     1    15    14    1
     2    15    16    1
     3    16    17    1
     4    17    18    1
     5    18    19    1
     6    19    20    1
     7    20    12    1
     8    12     1    1
     9     1     2    1
    10     2     3    1
    11     3     4    2
    12     4     5    1
    13     5     6    2
    14     6     7    1
    15     7     8    2
    16     7     9    1
    17     9    10    2
    18    10    23    1
    19    23    25    1
    20    25    26    2
    21    26    27    1
    22    27    28    2
    23    28    29    1
    24    29    30    2
    25    30    31    1
    26    31    32    2
    27    32    33    1
    28    10    11    1
    29    20    15    1
    30    11     1    2
    31     9     3    1
    32    33    25    1
    33    33    29    1
    34    14    21    1
    35    14    22    1
    36    12    13    1
    37    23    24    1
@<TRIPOS>MOLECULE
*****
 33 37 0 0 0
SMALL
GASTEIGER

@<TRIPOS>ATOM
      1 C         142.5673  139.6918  166.4121 C.2     1  UNL1        0.3056
      2 C         142.7499  139.4541  167.8818 C.3     1  UNL1        0.1439
      3 C         142.1716  140.4181  168.8750 C.2     1  UNL1        0.0029
      4 C         142.3542  140.1804  170.3447 C.2     1  UNL1        0.0146
      5 C         141.7759  141.1444  171.3378 C.2     1  UNL1        0.0886
      6 N         141.0150  142.3460  170.8612 N.am    1  UNL1       -0.1739
      7 C         140.8324  142.5837  169.3915 C.2     1  UNL1        0.2759
      8 O         140.0716  143.7853  168.9149 O.2     1  UNL1       -0.2678
      9 C         141.4107  141.6197  168.3984 C.2     1  UNL1        0.1344
     10 C         141.2281  141.8574  166.9286 C.2     1  UNL1        0.3328
     11 N         141.8064  140.8934  165.9355 N.2     1  UNL1       -0.0042
     12 N         143.1456  138.7278  165.4188 N.pl3   1  UNL1       -0.2241
     13 H         144.0505  138.3647  165.5547 H       1  UNL1        0.2918
     14 N         144.3672  138.8651  162.6823 N.3     1  UNL1       -0.3170
     15 C         142.9558  138.3856  162.8505 C.3     1  UNL1        0.1239
     16 C         142.1553  137.9748  161.6502 C.3     1  UNL1        0.1616
     17 O         140.7439  137.4954  161.8184 O.3     1  UNL1       -0.3521
     18 C         140.1331  137.4268  163.1867 C.3     1  UNL1        0.1464
     19 C         140.9337  137.8376  164.3868 C.3     1  UNL1        0.0799
     20 C         142.3450  138.3170  164.2187 C.3     1  UNL1        0.1755
     21 H         144.6169  138.8471  161.6935 H       1  UNL1        0.1190
     22 H         144.9976  138.2556  163.2034 H       1  UNL1        0.1190
     23 N         140.4672  143.0590  166.4520 N.pl3   1  UNL1       -0.2003
     24 H         139.9988  143.6338  167.0997 H       1  UNL1        0.2983
     25 C         140.4200  143.3849  164.9886 C.2     1  UNL1        0.1391
     26 C         141.5009  144.2221  164.3714 C.2     1  UNL1        0.0378
     27 C         141.4537  144.5481  162.9080 C.2     1  UNL1        0.0030
     28 C         140.3257  144.0369  162.0618 C.2     1  UNL1       -0.0018
     29 C         139.2448  143.1997  162.6789 C.2     1  UNL1        0.0089
     30 C         138.0173  142.5601  162.1009 C.2     1  UNL1        0.0182
     31 C         137.3058  141.8388  163.2071 C.2     1  UNL1        0.0937
     32 N         138.0936  142.0327  164.4688 N.2     1  UNL1       -0.2583
     33 C         139.2920  142.8737  164.1424 C.3     1  UNL1        0.1844
@<TRIPOS>BOND
     1    15    14    1
     2    15    16    1
     3    16    17    1
     4    17    18    1
     5    18    19    1
     6    19    20    1
     7    20    12    1
     8    12     1    1
     9     1     2    1
    10     2     3    1
    11     3     4    2
    12     4     5    1
    13     5     6    2
    14     6     7    1
    15     7     8    2
    16     7     9    1
    17     9    10    2
    18    10    23    1
    19    23    25    1
    20    25    26    2
    21    26    27    1
    22    27    28    2
    23    28    29    1
    24    29    30    2
    25    30    31    1
    26    31    32    2
    27    32    33    1
    28    10    11    1
    29    20    15    1
    30    11     1    2
    31     9     3    1
    32    33    25    1
    33    33    29    1
    34    14    21    1
    35    14    22    1
    36    12    13    1
    37    23    24    1
