@<TRIPOS>MOLECULE
*****
 39 43 0 0 0
SMALL
GASTEIGER

@<TRIPOS>ATOM
      1 C         143.8419  141.6219  163.8632 C.3     1  UNL1        0.0080
      2 C         144.0139  140.1344  163.9527 C.3     1  UNL1        0.0177
      3 C         143.7295  139.2733  162.7579 C.3     1  UNL1        0.0721
      4 N         143.2732  139.8996  161.4735 N.3     1  UNL1       -0.2736
      5 C         143.1012  141.3870  161.3840 C.3     1  UNL1        0.0776
      6 C         143.3856  142.2482  162.5788 C.3     1  UNL1        0.0525
      7 C         142.9888  139.0385  160.2787 C.3     1  UNL1        0.0582
      8 C         143.0292  139.2394  158.7928 C.3     1  UNL1        0.0204
      9 C         142.5866  137.8207  158.5889 C.3     1  UNL1        0.0252
     10 C         142.5462  137.6198  160.0748 C.3     1  UNL1        0.0204
     11 C         142.3022  136.9596  157.3941 C.ar    1  UNL1       -0.0180
     12 C         141.0456  137.1675  156.6018 C.ar    1  UNL1        0.0255
     13 C         140.7612  136.3064  155.4070 C.ar    1  UNL1        0.1421
     14 F         139.5046  136.5143  154.6147 F       1  UNL1       -0.2041
     15 C         141.7334  135.2374  155.0044 C.ar    1  UNL1        0.0592
     16 C         142.9901  135.0295  155.7967 C.ar    1  UNL1        0.1421
     17 F         143.9623  133.9606  155.3941 F       1  UNL1       -0.2041
     18 C         143.2745  135.8906  156.9915 C.ar    1  UNL1        0.0255
     19 C         143.2137  143.7356  162.4893 C.2     1  UNL1        0.0513
     20 O         144.4167  144.6239  162.3724 O.co2   1  UNL1       -0.5491
     21 O         141.8388  144.3346  162.5167 O.co2   1  UNL1       -0.5491
     22 C         144.1263  142.4830  165.0580 C.3     1  UNL1        0.0033
     23 C         143.2313  142.4173  166.2598 C.3     1  UNL1        0.0339
     24 C         141.7446  142.5300  166.0949 C.3     1  UNL1        0.1350
     25 O         141.1659  143.6077  165.2268 O.3     1  UNL1       -0.3800
     26 H         141.8841  144.1400  164.8502 H       1  UNL1        0.2108
     27 C         139.7963  139.1892  163.7942 C.ar    1  UNL1        0.1388
     28 C         138.8884  138.2242  164.4974 C.ar    1  UNL1        0.0384
     29 C         138.6299  138.3729  165.9675 C.ar    1  UNL1        0.0222
     30 C         139.2793  139.4864  166.7343 C.ar    1  UNL1        0.0814
     31 N         139.0208  139.6351  168.2044 N.ar    1  UNL1       -0.2415
     32 C         139.6702  140.7487  168.9713 C.ar    1  UNL1        0.1281
     33 C         140.5781  141.7137  168.2681 C.ar    1  UNL1        0.1575
     34 F         141.2275  142.8273  169.0350 F       1  UNL1       -0.2028
     35 C         140.8367  141.5651  166.7981 C.ar    1  UNL1        0.0348
     36 C         140.1872  140.4514  166.0312 C.ar    1  UNL1        0.0212
     37 C         140.4457  140.3028  164.5611 C.ar    1  UNL1        0.0382
     38 C         138.9423  139.2560  161.3415 C.3     1  UNL1        0.2525
     39 O         140.0549  139.0406  162.3242 O.3     1  UNL1       -0.4714
@<TRIPOS>UNITY_ATOM_ATTR
20 1
charge -1
@<TRIPOS>BOND
     1    38    39    1
     2    39    27    1
     3    27    28   ar
     4    28    29   ar
     5    29    30   ar
     6    30    31   ar
     7    31    32   ar
     8    32    33   ar
     9    33    34    1
    10    33    35   ar
    11    35    24    1
    12    24    25    1
    13    24    23    1
    14    23    22    1
    15     1    22    1
    16     1     2    1
    17     2     3    1
    18     3     4    1
    19     4     7    1
    20     7     8    1
    21     8     9    1
    22     9    11    1
    23    11    12   ar
    24    12    13   ar
    25    13    14    1
    26    13    15   ar
    27    15    16   ar
    28    16    17    1
    29    16    18   ar
    30     9    10    1
    31     4     5    1
    32     5     6    1
    33     6    19    1
    34    19    20   ar
    35    19    21   ar
    36    35    36   ar
    37    36    37   ar
    38    37    27   ar
    39    36    30   ar
    40     6     1    1
    41    10     7    1
    42    18    11   ar
    43    25    26    1
@<TRIPOS>MOLECULE
*****
 39 43 0 0 0
SMALL
GASTEIGER

@<TRIPOS>ATOM
      1 C         139.7667  142.8612  160.2884 C.3     1  UNL1        0.0080
      2 C         139.6117  141.5050  160.9104 C.3     1  UNL1        0.0177
      3 C         139.8447  141.3233  162.3809 C.3     1  UNL1        0.0721
      4 N         140.2329  142.4976  163.2296 N.3     1  UNL1       -0.2736
      5 C         140.3880  143.8538  162.6077 C.3     1  UNL1        0.0776
      6 C         140.1549  144.0356  161.1371 C.3     1  UNL1        0.0525
      7 C         140.4660  142.3158  164.7001 C.3     1  UNL1        0.0582
      8 C         141.3278  141.4148  165.5340 C.3     1  UNL1        0.0204
      9 C         140.7957  142.0587  166.7799 C.3     1  UNL1        0.0252
     10 C         139.9339  142.9598  165.9460 C.3     1  UNL1        0.0204
     11 C         141.0288  141.8770  168.2505 C.ar    1  UNL1       -0.0180
     12 C         140.2727  140.8240  169.0051 C.ar    1  UNL1        0.0255
     13 C         140.5057  140.6422  170.4758 C.ar    1  UNL1        0.1421
     14 F         139.7497  139.5892  171.2304 F       1  UNL1       -0.2041
     15 C         141.4949  141.5134  171.1917 C.ar    1  UNL1        0.0592
     16 C         142.2510  142.5664  170.4370 C.ar    1  UNL1        0.1421
     17 F         143.2402  143.4376  171.1529 F       1  UNL1       -0.2041
     18 C         142.0179  142.7482  168.9664 C.ar    1  UNL1        0.0255
     19 C         140.3100  145.3917  160.5152 C.2     1  UNL1        0.0513
     20 O         139.3072  146.4689  160.8052 O.co2   1  UNL1       -0.5491
     21 O         141.4678  145.6707  159.6032 O.co2   1  UNL1       -0.5491
     22 C         139.5337  143.0430  158.8178 C.3     1  UNL1        0.0033
     23 C         140.5251  142.5048  157.8292 C.3     1  UNL1        0.0339
     24 C         141.9898  142.5193  158.1523 C.3     1  UNL1        0.1350
     25 O         142.8417  143.6759  157.7206 O.3     1  UNL1       -0.3800
     26 H         142.2940  144.3223  157.2481 H       1  UNL1        0.2108
     27 C         144.1987  143.2898  161.9964 C.ar    1  UNL1        0.1388
     28 C         144.8115  142.1476  162.7512 C.ar    1  UNL1        0.0384
     29 C         144.6881  140.7485  162.2246 C.ar    1  UNL1        0.0222
     30 C         143.9518  140.4916  160.9433 C.ar    1  UNL1        0.0814
     31 N         143.8283  139.0925  160.4167 N.ar    1  UNL1       -0.2415
     32 C         143.0921  138.8357  159.1354 C.ar    1  UNL1        0.1281
     33 C         142.4792  139.9779  158.3805 C.ar    1  UNL1        0.1575
     34 F         141.7429  139.7211  157.0992 F       1  UNL1       -0.2028
     35 C         142.6027  141.3770  158.9071 C.ar    1  UNL1        0.0348
     36 C         143.3390  141.6339  160.1885 C.ar    1  UNL1        0.0212
     37 C         143.4624  143.0330  160.7151 C.ar    1  UNL1        0.0382
     38 C         143.6487  145.0687  163.8084 C.3     1  UNL1        0.2525
     39 O         144.3221  144.6889  162.5230 O.3     1  UNL1       -0.4714
@<TRIPOS>UNITY_ATOM_ATTR
20 1
charge -1
@<TRIPOS>BOND
     1    38    39    1
     2    39    27    1
     3    27    28   ar
     4    28    29   ar
     5    29    30   ar
     6    30    31   ar
     7    31    32   ar
     8    32    33   ar
     9    33    34    1
    10    33    35   ar
    11    35    24    1
    12    24    25    1
    13    24    23    1
    14    23    22    1
    15     1    22    1
    16     1     2    1
    17     2     3    1
    18     3     4    1
    19     4     7    1
    20     7     8    1
    21     8     9    1
    22     9    11    1
    23    11    12   ar
    24    12    13   ar
    25    13    14    1
    26    13    15   ar
    27    15    16   ar
    28    16    17    1
    29    16    18   ar
    30     9    10    1
    31     4     5    1
    32     5     6    1
    33     6    19    1
    34    19    20   ar
    35    19    21   ar
    36    35    36   ar
    37    36    37   ar
    38    37    27   ar
    39    36    30   ar
    40     6     1    1
    41    10     7    1
    42    18    11   ar
    43    25    26    1
@<TRIPOS>MOLECULE
*****
 39 43 0 0 0
SMALL
GASTEIGER

@<TRIPOS>ATOM
      1 C         138.5083  141.3557  163.4341 C.3     1  UNL1        0.0080
      2 C         138.5749  141.9749  162.0694 C.3     1  UNL1        0.0177
      3 C         139.3459  141.2978  160.9754 C.3     1  UNL1        0.0721
      4 N         140.0502  140.0013  161.2458 N.3     1  UNL1       -0.2736
      5 C         139.9836  139.3820  162.6103 C.3     1  UNL1        0.0776
      6 C         139.2126  140.0592  163.7045 C.3     1  UNL1        0.0525
      7 C         140.8211  139.3241  160.1517 C.3     1  UNL1        0.0582
      8 C         142.0872  138.5225  160.0859 C.3     1  UNL1        0.0204
      9 C         141.9114  138.3664  158.6044 C.3     1  UNL1        0.0252
     10 C         140.6453  139.1680  158.6702 C.3     1  UNL1        0.0204
     11 C         142.6824  137.6892  157.5103 C.ar    1  UNL1       -0.0180
     12 C         142.7927  136.1935  157.4856 C.ar    1  UNL1        0.0255
     13 C         143.5637  135.5163  156.3915 C.ar    1  UNL1        0.1421
     14 F         143.6740  134.0206  156.3668 F       1  UNL1       -0.2041
     15 C         144.2242  136.3348  155.3221 C.ar    1  UNL1        0.0592
     16 C         144.1139  137.8306  155.3468 C.ar    1  UNL1        0.1421
     17 F         144.7745  138.6491  154.2774 F       1  UNL1       -0.2041
     18 C         143.3430  138.5078  156.4409 C.ar    1  UNL1        0.0255
     19 C         139.1460  139.4399  165.0690 C.2     1  UNL1        0.0513
     20 O         140.4051  139.2131  165.8520 O.co2   1  UNL1       -0.5491
     21 O         137.8202  139.0475  165.6507 O.co2   1  UNL1       -0.5491
     22 C         137.7374  142.0328  164.5282 C.3     1  UNL1        0.0033
     23 C         137.5256  143.5172  164.4883 C.3     1  UNL1        0.0339
     24 C         138.5804  144.4400  165.0233 C.3     1  UNL1        0.1350
     25 O         138.2459  145.4042  166.1226 O.3     1  UNL1       -0.3800
     26 H         137.3135  145.3019  166.3698 H       1  UNL1        0.2108
     27 C         141.7956  142.1007  167.1306 C.ar    1  UNL1        0.1388
     28 C         143.1847  142.0591  166.5663 C.ar    1  UNL1        0.0384
     29 C         143.5022  142.7973  165.2997 C.ar    1  UNL1        0.0222
     30 C         142.4305  143.5770  164.5973 C.ar    1  UNL1        0.0814
     31 N         142.7480  144.3151  163.3307 N.ar    1  UNL1       -0.2415
     32 C         141.6763  145.0949  162.6283 C.ar    1  UNL1        0.1281
     33 C         140.2870  145.1365  163.1925 C.ar    1  UNL1        0.1575
     34 F         139.2153  145.9162  162.4901 F       1  UNL1       -0.2028
     35 C         139.9695  144.3984  164.4591 C.ar    1  UNL1        0.0348
     36 C         141.0413  143.6186  165.1615 C.ar    1  UNL1        0.0212
     37 C         140.7239  142.8805  166.4282 C.ar    1  UNL1        0.0382
     38 C         140.0952  141.4247  168.9749 C.3     1  UNL1        0.2525
     39 O         141.4781  141.3626  168.3972 O.3     1  UNL1       -0.4714
@<TRIPOS>UNITY_ATOM_ATTR
20 1
charge -1
@<TRIPOS>BOND
     1    38    39    1
     2    39    27    1
     3    27    28   ar
     4    28    29   ar
     5    29    30   ar
     6    30    31   ar
     7    31    32   ar
     8    32    33   ar
     9    33    34    1
    10    33    35   ar
    11    35    24    1
    12    24    25    1
    13    24    23    1
    14    23    22    1
    15     1    22    1
    16     1     2    1
    17     2     3    1
    18     3     4    1
    19     4     7    1
    20     7     8    1
    21     8     9    1
    22     9    11    1
    23    11    12   ar
    24    12    13   ar
    25    13    14    1
    26    13    15   ar
    27    15    16   ar
    28    16    17    1
    29    16    18   ar
    30     9    10    1
    31     4     5    1
    32     5     6    1
    33     6    19    1
    34    19    20   ar
    35    19    21   ar
    36    35    36   ar
    37    36    37   ar
    38    37    27   ar
    39    36    30   ar
    40     6     1    1
    41    10     7    1
    42    18    11   ar
    43    25    26    1
@<TRIPOS>MOLECULE
*****
 39 43 0 0 0
SMALL
GASTEIGER

@<TRIPOS>ATOM
      1 C         140.7136  143.7953  163.8621 C.3     1  UNL1        0.0080
      2 C         142.2113  143.8735  163.8935 C.3     1  UNL1        0.0177
      3 C         143.0083  143.4803  162.6852 C.3     1  UNL1        0.0721
      4 N         142.3077  143.0088  161.4455 N.3     1  UNL1       -0.2736
      5 C         140.8102  142.9305  161.4141 C.3     1  UNL1        0.0776
      6 C         140.0130  143.3237  162.6224 C.3     1  UNL1        0.0525
      7 C         143.1048  142.6155  160.2371 C.3     1  UNL1        0.0582
      8 C         142.9840  142.8581  158.7618 C.3     1  UNL1        0.0204
      9 C         144.2320  142.0594  158.5282 C.3     1  UNL1        0.0252
     10 C         144.3528  141.8168  160.0035 C.3     1  UNL1        0.0204
     11 C         145.0290  141.6661  157.3199 C.ar    1  UNL1       -0.0180
     12 C         144.5665  140.5331  156.4526 C.ar    1  UNL1        0.0255
     13 C         145.3635  140.1398  155.2442 C.ar    1  UNL1        0.1421
     14 F         144.9010  139.0068  154.3768 F       1  UNL1       -0.2041
     15 C         146.6231  140.8796  154.9032 C.ar    1  UNL1        0.0592
     16 C         147.0856  142.0126  155.7706 C.ar    1  UNL1        0.1421
     17 F         148.3452  142.7524  155.4297 F       1  UNL1       -0.2041
     18 C         146.2886  142.4059  156.9789 C.ar    1  UNL1        0.0255
     19 C         138.5154  143.2454  162.5910 C.2     1  UNL1        0.0513
     20 O         137.8323  141.9124  162.6700 O.co2   1  UNL1       -0.5491
     21 O         137.7010  144.5002  162.4807 O.co2   1  UNL1       -0.5491
     22 C         139.9166  144.1885  165.0704 C.3     1  UNL1        0.0033
     23 C         139.9970  143.3659  166.3221 C.3     1  UNL1        0.0339
     24 C         139.8166  141.8783  166.2549 C.3     1  UNL1        0.1350
     25 O         138.6696  141.2960  165.4834 O.3     1  UNL1       -0.3800
     26 H         138.1455  142.0127  165.0929 H       1  UNL1        0.2108
     27 C         142.9180  139.6273  163.8959 C.ar    1  UNL1        0.1388
     28 C         143.8848  138.7221  164.6001 C.ar    1  UNL1        0.0384
     29 C         143.8177  138.5671  166.0905 C.ar    1  UNL1        0.0222
     30 C         142.7840  139.3174  166.8768 C.ar    1  UNL1        0.0814
     31 N         142.7169  139.1624  168.3673 N.ar    1  UNL1       -0.2415
     32 C         141.6831  139.9127  169.1536 C.ar    1  UNL1        0.1281
     33 C         140.7163  140.8180  168.4495 C.ar    1  UNL1        0.1575
     34 F         139.6825  141.5683  169.2358 F       1  UNL1       -0.2028
     35 C         140.7834  140.9730  166.9590 C.ar    1  UNL1        0.0348
     36 C         141.8172  140.2226  166.1727 C.ar    1  UNL1        0.0212
     37 C         141.8843  140.3776  164.6822 C.ar    1  UNL1        0.0382
     38 C         142.5425  138.6601  161.5140 C.3     1  UNL1        0.2525
     39 O         142.9851  139.7823  162.4054 O.3     1  UNL1       -0.4714
@<TRIPOS>UNITY_ATOM_ATTR
20 1
charge -1
@<TRIPOS>BOND
     1    38    39    1
     2    39    27    1
     3    27    28   ar
     4    28    29   ar
     5    29    30   ar
     6    30    31   ar
     7    31    32   ar
     8    32    33   ar
     9    33    34    1
    10    33    35   ar
    11    35    24    1
    12    24    25    1
    13    24    23    1
    14    23    22    1
    15     1    22    1
    16     1     2    1
    17     2     3    1
    18     3     4    1
    19     4     7    1
    20     7     8    1
    21     8     9    1
    22     9    11    1
    23    11    12   ar
    24    12    13   ar
    25    13    14    1
    26    13    15   ar
    27    15    16   ar
    28    16    17    1
    29    16    18   ar
    30     9    10    1
    31     4     5    1
    32     5     6    1
    33     6    19    1
    34    19    20   ar
    35    19    21   ar
    36    35    36   ar
    37    36    37   ar
    38    37    27   ar
    39    36    30   ar
    40     6     1    1
    41    10     7    1
    42    18    11   ar
    43    25    26    1
@<TRIPOS>MOLECULE
*****
 39 43 0 0 0
SMALL
GASTEIGER

@<TRIPOS>ATOM
      1 C         141.5062  144.0399  162.8247 C.3     1  UNL1        0.0080
      2 C         142.1606  143.9180  161.4804 C.3     1  UNL1        0.0177
      3 C         141.4068  143.3173  160.3311 C.3     1  UNL1        0.0721
      4 N         139.9987  142.8386  160.5259 N.3     1  UNL1       -0.2736
      5 C         139.3443  142.9605  161.8701 C.3     1  UNL1        0.0776
      6 C         140.0981  143.5612  163.0195 C.3     1  UNL1        0.0525
      7 C         139.2449  142.2379  159.3766 C.3     1  UNL1        0.0582
      8 C         138.7783  142.7329  158.0397 C.3     1  UNL1        0.0204
      9 C         138.1789  141.3884  157.7510 C.3     1  UNL1        0.0252
     10 C         138.6456  140.8935  159.0879 C.3     1  UNL1        0.0204
     11 C         137.4252  140.7878  156.6017 C.ar    1  UNL1       -0.0180
     12 C         135.9419  140.9829  156.4937 C.ar    1  UNL1        0.0255
     13 C         135.1881  140.3822  155.3443 C.ar    1  UNL1        0.1421
     14 F         133.7048  140.5774  155.2364 F       1  UNL1       -0.2041
     15 C         135.9176  139.5864  154.3030 C.ar    1  UNL1        0.0592
     16 C         137.4010  139.3913  154.4110 C.ar    1  UNL1        0.1421
     17 F         138.1305  138.5955  153.3696 F       1  UNL1       -0.2041
     18 C         138.1547  139.9919  155.5603 C.ar    1  UNL1        0.0255
     19 C         139.4437  143.6831  164.3637 C.2     1  UNL1        0.0513
     20 O         139.2320  142.4617  165.2083 O.co2   1  UNL1       -0.5491
     21 O         139.0010  145.0263  164.8633 O.co2   1  UNL1       -0.5491
     22 C         142.2599  144.6406  163.9740 C.3     1  UNL1        0.0033
     23 C         143.7562  144.5461  164.0209 C.3     1  UNL1        0.0339
     24 C         144.4211  143.6808  165.0501 C.3     1  UNL1        0.1350
     25 O         145.2689  144.3039  166.1193 O.3     1  UNL1       -0.3800
     26 H         145.2819  145.2666  166.0015 H       1  UNL1        0.2108
     27 C         141.3794  141.7150  167.7210 C.ar    1  UNL1        0.1388
     28 C         141.1966  140.2268  167.6811 C.ar    1  UNL1        0.0384
     29 C         142.0277  139.3938  166.7508 C.ar    1  UNL1        0.0222
     30 C         143.0416  140.0490  165.8605 C.ar    1  UNL1        0.0814
     31 N         143.8727  139.2160  164.9302 N.ar    1  UNL1       -0.2415
     32 C         144.8865  139.8712  164.0399 C.ar    1  UNL1        0.1281
     33 C         145.0694  141.3595  164.0799 C.ar    1  UNL1        0.1575
     34 F         146.0833  142.0147  163.1896 F       1  UNL1       -0.2028
     35 C         144.2383  142.1925  165.0101 C.ar    1  UNL1        0.0348
     36 C         143.2244  141.5372  165.9005 C.ar    1  UNL1        0.0212
     37 C         142.3933  142.3703  166.8307 C.ar    1  UNL1        0.0382
     38 C         141.1671  143.1412  169.8823 C.3     1  UNL1        0.2525
     39 O         140.5484  142.5481  168.6513 O.3     1  UNL1       -0.4714
@<TRIPOS>UNITY_ATOM_ATTR
20 1
charge -1
@<TRIPOS>BOND
     1    38    39    1
     2    39    27    1
     3    27    28   ar
     4    28    29   ar
     5    29    30   ar
     6    30    31   ar
     7    31    32   ar
     8    32    33   ar
     9    33    34    1
    10    33    35   ar
    11    35    24    1
    12    24    25    1
    13    24    23    1
    14    23    22    1
    15     1    22    1
    16     1     2    1
    17     2     3    1
    18     3     4    1
    19     4     7    1
    20     7     8    1
    21     8     9    1
    22     9    11    1
    23    11    12   ar
    24    12    13   ar
    25    13    14    1
    26    13    15   ar
    27    15    16   ar
    28    16    17    1
    29    16    18   ar
    30     9    10    1
    31     4     5    1
    32     5     6    1
    33     6    19    1
    34    19    20   ar
    35    19    21   ar
    36    35    36   ar
    37    36    37   ar
    38    37    27   ar
    39    36    30   ar
    40     6     1    1
    41    10     7    1
    42    18    11   ar
    43    25    26    1
@<TRIPOS>MOLECULE
*****
 39 43 0 0 0
SMALL
GASTEIGER

@<TRIPOS>ATOM
      1 C         143.2842  142.7495  161.8329 C.3     1  UNL1        0.0080
      2 C         142.4253  142.9234  160.6154 C.3     1  UNL1        0.0177
      3 C         142.2825  141.8002  159.6316 C.3     1  UNL1        0.0721
      4 N         142.9986  140.5030  159.8652 N.3     1  UNL1       -0.2736
      5 C         143.8574  140.3290  161.0825 C.3     1  UNL1        0.0776
      6 C         144.0002  141.4523  162.0664 C.3     1  UNL1        0.0525
      7 C         142.8558  139.3798  158.8814 C.3     1  UNL1        0.0582
      8 C         142.3120  137.9829  158.9379 C.3     1  UNL1        0.0204
      9 C         142.6538  137.7912  157.4900 C.3     1  UNL1        0.0252
     10 C         143.1976  139.1880  157.4334 C.3     1  UNL1        0.0204
     11 C         142.5110  136.6679  156.5062 C.ar    1  UNL1       -0.0180
     12 C         143.4604  135.5075  156.5498 C.ar    1  UNL1        0.0255
     13 C         143.3177  134.3842  155.5660 C.ar    1  UNL1        0.1421
     14 F         144.2671  133.2238  155.6096 F       1  UNL1       -0.2041
     15 C         142.2254  134.4214  154.5385 C.ar    1  UNL1        0.0592
     16 C         141.2760  135.5819  154.4949 C.ar    1  UNL1        0.1421
     17 F         140.1837  135.6191  153.4675 F       1  UNL1       -0.2041
     18 C         141.4188  136.7051  155.4787 C.ar    1  UNL1        0.0255
     19 C         144.8591  141.2783  163.2838 C.2     1  UNL1        0.0513
     20 O         146.3086  141.6616  163.2400 O.co2   1  UNL1       -0.5491
     21 O         144.2684  140.7211  164.5450 O.co2   1  UNL1       -0.5491
     22 C         143.4270  143.8727  162.8167 C.3     1  UNL1        0.0033
     23 C         142.2954  144.2069  163.7428 C.3     1  UNL1        0.0339
     24 C         141.4112  143.1162  164.2708 C.3     1  UNL1        0.1350
     25 O         141.9066  142.2096  165.3583 O.3     1  UNL1       -0.3800
     26 H         142.8102  142.4629  165.6038 H       1  UNL1        0.2108
     27 C         140.2771  139.2254  162.3150 C.ar    1  UNL1        0.1388
     28 C         138.8976  139.0414  161.7555 C.ar    1  UNL1        0.0384
     29 C         137.8961  140.1543  161.8479 C.ar    1  UNL1        0.0222
     30 C         138.2741  141.4512  162.4998 C.ar    1  UNL1        0.0814
     31 N         137.2726  142.5641  162.5922 N.ar    1  UNL1       -0.2415
     32 C         137.6507  143.8610  163.2441 C.ar    1  UNL1        0.1281
     33 C         139.0302  144.0451  163.8037 C.ar    1  UNL1        0.1575
     34 F         139.4082  145.3420  164.4556 F       1  UNL1       -0.2028
     35 C         140.0317  142.9322  163.7113 C.ar    1  UNL1        0.0348
     36 C         139.6536  141.6352  163.0593 C.ar    1  UNL1        0.0212
     37 C         140.6551  140.5223  162.9669 C.ar    1  UNL1        0.0382
     38 C         142.2783  137.9100  163.3222 C.3     1  UNL1        0.2525
     39 O         141.2785  138.1125  162.2225 O.3     1  UNL1       -0.4714
@<TRIPOS>UNITY_ATOM_ATTR
20 1
charge -1
@<TRIPOS>BOND
     1    38    39    1
     2    39    27    1
     3    27    28   ar
     4    28    29   ar
     5    29    30   ar
     6    30    31   ar
     7    31    32   ar
     8    32    33   ar
     9    33    34    1
    10    33    35   ar
    11    35    24    1
    12    24    25    1
    13    24    23    1
    14    23    22    1
    15     1    22    1
    16     1     2    1
    17     2     3    1
    18     3     4    1
    19     4     7    1
    20     7     8    1
    21     8     9    1
    22     9    11    1
    23    11    12   ar
    24    12    13   ar
    25    13    14    1
    26    13    15   ar
    27    15    16   ar
    28    16    17    1
    29    16    18   ar
    30     9    10    1
    31     4     5    1
    32     5     6    1
    33     6    19    1
    34    19    20   ar
    35    19    21   ar
    36    35    36   ar
    37    36    37   ar
    38    37    27   ar
    39    36    30   ar
    40     6     1    1
    41    10     7    1
    42    18    11   ar
    43    25    26    1
@<TRIPOS>MOLECULE
*****
 39 43 0 0 0
SMALL
GASTEIGER

@<TRIPOS>ATOM
      1 C         141.2359  142.9987  165.4316 C.3     1  UNL1        0.0080
      2 C         139.8788  143.3675  164.9095 C.3     1  UNL1        0.0177
      3 C         139.7051  143.7344  163.4655 C.3     1  UNL1        0.0721
      4 N         140.8883  143.7325  162.5436 N.3     1  UNL1       -0.2736
      5 C         142.2452  143.3637  163.0656 C.3     1  UNL1        0.0776
      6 C         142.4191  142.9968  164.5097 C.3     1  UNL1        0.0525
      7 C         140.7145  144.0994  161.0996 C.3     1  UNL1        0.0582
      8 C         139.6487  143.8734  160.0686 C.3     1  UNL1        0.0204
      9 C         140.4687  144.6183  159.0574 C.3     1  UNL1        0.0252
     10 C         141.5345  144.8444  160.0883 C.3     1  UNL1        0.0204
     11 C         140.2949  144.9852  157.6134 C.ar    1  UNL1       -0.0180
     12 C         140.5300  143.9587  156.5452 C.ar    1  UNL1        0.0255
     13 C         140.3562  144.3256  155.1012 C.ar    1  UNL1        0.1421
     14 F         140.5912  143.2990  154.0330 F       1  UNL1       -0.2041
     15 C         139.9474  145.7190  154.7253 C.ar    1  UNL1        0.0592
     16 C         139.7123  146.7455  155.7935 C.ar    1  UNL1        0.1421
     17 F         139.3035  148.1389  155.4177 F       1  UNL1       -0.2041
     18 C         139.8861  146.3786  157.2375 C.ar    1  UNL1        0.0255
     19 C         143.7761  142.6280  165.0317 C.2     1  UNL1        0.0513
     20 O         144.6499  143.6757  165.6551 O.co2   1  UNL1       -0.5491
     21 O         144.2592  141.2116  164.9302 O.co2   1  UNL1       -0.5491
     22 C         141.4097  142.6318  166.8756 C.3     1  UNL1        0.0033
     23 C         140.2890  141.9702  167.6214 C.3     1  UNL1        0.0339
     24 C         140.2379  140.4746  167.7264 C.3     1  UNL1        0.1350
     25 O         139.1973  139.8182  168.5844 O.3     1  UNL1       -0.3800
     26 H         138.6427  140.4984  168.9974 H       1  UNL1        0.2108
     27 C         139.2644  139.0264  163.5785 C.ar    1  UNL1        0.1388
     28 C         140.2539  138.1875  162.8256 C.ar    1  UNL1        0.0384
     29 C         141.5680  137.8313  163.4552 C.ar    1  UNL1        0.0222
     30 C         141.8925  138.3140  164.8378 C.ar    1  UNL1        0.0814
     31 N         143.2065  137.9578  165.4674 N.ar    1  UNL1       -0.2415
     32 C         143.5310  138.4405  166.8500 C.ar    1  UNL1        0.1281
     33 C         142.5415  139.2795  167.6031 C.ar    1  UNL1        0.1575
     34 F         142.8660  139.7622  168.9857 F       1  UNL1       -0.2028
     35 C         141.2275  139.6357  166.9734 C.ar    1  UNL1        0.0348
     36 C         140.9030  139.1530  165.5908 C.ar    1  UNL1        0.0212
     37 C         139.5889  139.5092  164.9611 C.ar    1  UNL1        0.0382
     38 C         137.5345  140.8199  162.8433 C.3     1  UNL1        0.2525
     39 O         137.9504  139.3827  162.9489 O.3     1  UNL1       -0.4714
@<TRIPOS>UNITY_ATOM_ATTR
20 1
charge -1
@<TRIPOS>BOND
     1    38    39    1
     2    39    27    1
     3    27    28   ar
     4    28    29   ar
     5    29    30   ar
     6    30    31   ar
     7    31    32   ar
     8    32    33   ar
     9    33    34    1
    10    33    35   ar
    11    35    24    1
    12    24    25    1
    13    24    23    1
    14    23    22    1
    15     1    22    1
    16     1     2    1
    17     2     3    1
    18     3     4    1
    19     4     7    1
    20     7     8    1
    21     8     9    1
    22     9    11    1
    23    11    12   ar
    24    12    13   ar
    25    13    14    1
    26    13    15   ar
    27    15    16   ar
    28    16    17    1
    29    16    18   ar
    30     9    10    1
    31     4     5    1
    32     5     6    1
    33     6    19    1
    34    19    20   ar
    35    19    21   ar
    36    35    36   ar
    37    36    37   ar
    38    37    27   ar
    39    36    30   ar
    40     6     1    1
    41    10     7    1
    42    18    11   ar
    43    25    26    1
@<TRIPOS>MOLECULE
*****
 39 43 0 0 0
SMALL
GASTEIGER

@<TRIPOS>ATOM
      1 C         141.7242  138.5125  159.4345 C.3     1  UNL1        0.0080
      2 C         142.6520  137.8046  160.3769 C.3     1  UNL1        0.0177
      3 C         142.5315  138.0259  161.8556 C.3     1  UNL1        0.0721
      4 N         141.4832  138.9552  162.3919 N.3     1  UNL1       -0.2736
      5 C         140.5554  139.6631  161.4495 C.3     1  UNL1        0.0776
      6 C         140.6759  139.4418  159.9708 C.3     1  UNL1        0.0525
      7 C         141.3627  139.1765  163.8705 C.3     1  UNL1        0.0582
      8 C         141.0072  138.3156  165.0463 C.3     1  UNL1        0.0204
      9 C         141.1922  139.4895  165.9618 C.3     1  UNL1        0.0252
     10 C         141.5476  140.3503  164.7859 C.3     1  UNL1        0.0204
     11 C         141.0716  139.7108  167.4404 C.ar    1  UNL1       -0.0180
     12 C         139.7523  140.1064  168.0344 C.ar    1  UNL1        0.0255
     13 C         139.6317  140.3278  169.5131 C.ar    1  UNL1        0.1421
     14 F         138.3124  140.7234  170.1071 F       1  UNL1       -0.2041
     15 C         140.8305  140.1534  170.3978 C.ar    1  UNL1        0.0592
     16 C         142.1498  139.7578  169.8037 C.ar    1  UNL1        0.1421
     17 F         143.3486  139.5835  170.6883 F       1  UNL1       -0.2041
     18 C         142.2704  139.5365  168.3251 C.ar    1  UNL1        0.0255
     19 C         139.7482  140.1497  159.0284 C.2     1  UNL1        0.0513
     20 O         140.1142  141.5007  158.4892 O.co2   1  UNL1       -0.5491
     21 O         138.4544  139.5066  158.6253 O.co2   1  UNL1       -0.5491
     22 C         141.8448  138.2912  157.9558 C.3     1  UNL1        0.0033
     23 C         143.0600  138.7751  157.2217 C.3     1  UNL1        0.0339
     24 C         143.6088  137.9804  156.0739 C.3     1  UNL1        0.1350
     25 O         145.0509  138.1211  155.6859 O.3     1  UNL1       -0.3800
     26 H         145.4830  138.7603  156.2737 H       1  UNL1        0.2108
     27 C         143.5286  133.6032  157.1147 C.ar    1  UNL1        0.1388
     28 C         142.6353  132.6679  156.3550 C.ar    1  UNL1        0.0384
     29 C         141.7688  133.1917  155.2483 C.ar    1  UNL1        0.0222
     30 C         141.7955  134.6507  154.9014 C.ar    1  UNL1        0.0814
     31 N         140.9289  135.1745  153.7947 N.ar    1  UNL1       -0.2415
     32 C         140.9556  136.6335  153.4478 C.ar    1  UNL1        0.1281
     33 C         141.8490  137.5689  154.2075 C.ar    1  UNL1        0.1575
     34 F         141.8757  139.0280  153.8606 F       1  UNL1       -0.2028
     35 C         142.7155  137.0451  155.3142 C.ar    1  UNL1        0.0348
     36 C         142.6888  135.5860  155.6611 C.ar    1  UNL1        0.0212
     37 C         143.5553  135.0622  156.7678 C.ar    1  UNL1        0.0382
     38 C         145.3912  131.9927  157.9437 C.3     1  UNL1        0.2525
     39 O         144.3952  133.0794  158.2214 O.3     1  UNL1       -0.4714
@<TRIPOS>UNITY_ATOM_ATTR
20 1
charge -1
@<TRIPOS>BOND
     1    38    39    1
     2    39    27    1
     3    27    28   ar
     4    28    29   ar
     5    29    30   ar
     6    30    31   ar
     7    31    32   ar
     8    32    33   ar
     9    33    34    1
    10    33    35   ar
    11    35    24    1
    12    24    25    1
    13    24    23    1
    14    23    22    1
    15     1    22    1
    16     1     2    1
    17     2     3    1
    18     3     4    1
    19     4     7    1
    20     7     8    1
    21     8     9    1
    22     9    11    1
    23    11    12   ar
    24    12    13   ar
    25    13    14    1
    26    13    15   ar
    27    15    16   ar
    28    16    17    1
    29    16    18   ar
    30     9    10    1
    31     4     5    1
    32     5     6    1
    33     6    19    1
    34    19    20   ar
    35    19    21   ar
    36    35    36   ar
    37    36    37   ar
    38    37    27   ar
    39    36    30   ar
    40     6     1    1
    41    10     7    1
    42    18    11   ar
    43    25    26    1
@<TRIPOS>MOLECULE
*****
 39 43 0 0 0
SMALL
GASTEIGER

@<TRIPOS>ATOM
      1 C         143.4540  140.2245  159.7265 C.3     1  UNL1        0.0080
      2 C         143.8560  139.0497  160.5682 C.3     1  UNL1        0.0177
      3 C         143.4971  139.0123  162.0241 C.3     1  UNL1        0.0721
      4 N         142.7361  140.1497  162.6384 N.3     1  UNL1       -0.2736
      5 C         142.3341  141.3244  161.7968 C.3     1  UNL1        0.0776
      6 C         142.6931  141.3618  160.3408 C.3     1  UNL1        0.0525
      7 C         142.3772  140.1123  164.0943 C.3     1  UNL1        0.0582
      8 C         141.6421  141.0263  165.0293 C.3     1  UNL1        0.0204
      9 C         141.8695  140.0594  166.1534 C.3     1  UNL1        0.0252
     10 C         142.6047  139.1455  165.2184 C.3     1  UNL1        0.0204
     11 C         141.5106  140.0221  167.6093 C.ar    1  UNL1       -0.0180
     12 C         140.0775  140.1546  168.0321 C.ar    1  UNL1        0.0255
     13 C         139.7185  140.1172  169.4880 C.ar    1  UNL1        0.1421
     14 F         138.2855  140.2497  169.9108 F       1  UNL1       -0.2041
     15 C         140.7926  139.9473  170.5212 C.ar    1  UNL1        0.0592
     16 C         142.2258  139.8148  170.0984 C.ar    1  UNL1        0.1421
     17 F         143.2999  139.6449  171.1315 F       1  UNL1       -0.2041
     18 C         142.5847  139.8521  168.6425 C.ar    1  UNL1        0.0255
     19 C         142.2911  142.5366  159.4992 C.2     1  UNL1        0.0513
     20 O         140.9086  142.6072  158.9215 O.co2   1  UNL1       -0.5491
     21 O         143.2715  143.6407  159.2354 O.co2   1  UNL1       -0.5491
     22 C         143.8130  140.2619  158.2706 C.3     1  UNL1        0.0033
     23 C         142.8111  139.8331  157.2399 C.3     1  UNL1        0.0339
     24 C         141.6806  138.9253  157.6249 C.3     1  UNL1        0.1350
     25 O         141.9351  137.4642  157.8491 O.3     1  UNL1       -0.3800
     26 H         142.8754  137.2739  157.7054 H       1  UNL1        0.2108
     27 C         139.5013  138.4354  161.5314 C.ar    1  UNL1        0.1388
     28 C         138.1165  138.9887  161.6921 C.ar    1  UNL1        0.0384
     29 C         137.4580  139.7055  160.5507 C.ar    1  UNL1        0.0222
     30 C         138.1844  139.8688  159.2486 C.ar    1  UNL1        0.0814
     31 N         137.5260  140.5855  158.1072 N.ar    1  UNL1       -0.2415
     32 C         138.2524  140.7488  156.8051 C.ar    1  UNL1        0.1281
     33 C         139.6373  140.1954  156.6443 C.ar    1  UNL1        0.1575
     34 F         140.3637  140.3587  155.3421 F       1  UNL1       -0.2028
     35 C         140.2958  139.4787  157.7857 C.ar    1  UNL1        0.0348
     36 C         139.5693  139.3154  159.0879 C.ar    1  UNL1        0.0212
     37 C         140.2277  138.5987  160.2292 C.ar    1  UNL1        0.0382
     38 C         139.4927  137.6745  164.0155 C.3     1  UNL1        0.2525
     39 O         140.1598  137.7186  162.6728 O.3     1  UNL1       -0.4714
@<TRIPOS>UNITY_ATOM_ATTR
20 1
charge -1
@<TRIPOS>BOND
     1    38    39    1
     2    39    27    1
     3    27    28   ar
     4    28    29   ar
     5    29    30   ar
     6    30    31   ar
     7    31    32   ar
     8    32    33   ar
     9    33    34    1
    10    33    35   ar
    11    35    24    1
    12    24    25    1
    13    24    23    1
    14    23    22    1
    15     1    22    1
    16     1     2    1
    17     2     3    1
    18     3     4    1
    19     4     7    1
    20     7     8    1
    21     8     9    1
    22     9    11    1
    23    11    12   ar
    24    12    13   ar
    25    13    14    1
    26    13    15   ar
    27    15    16   ar
    28    16    17    1
    29    16    18   ar
    30     9    10    1
    31     4     5    1
    32     5     6    1
    33     6    19    1
    34    19    20   ar
    35    19    21   ar
    36    35    36   ar
    37    36    37   ar
    38    37    27   ar
    39    36    30   ar
    40     6     1    1
    41    10     7    1
    42    18    11   ar
    43    25    26    1
