@<TRIPOS>MOLECULE
*****
 37 40 0 0 0
SMALL
GASTEIGER

@<TRIPOS>ATOM
      1 O         138.8076  139.1554  158.3778 O.2     1  UNL1       -0.2733
      2 C         140.0186  138.4049  157.9084 C.2     1  UNL1        0.2426
      3 N         141.1376  138.1140  158.8639 N.am    1  UNL1       -0.3018
      4 H         141.9324  137.6214  158.5558 H       1  UNL1        0.1495
      5 C         141.0457  138.5735  160.2889 C.3     1  UNL1        0.1035
      6 C         140.4237  138.0295  161.5407 C.3     1  UNL1        0.0933
      7 N         140.9157  139.2234  162.3040 N.3     1  UNL1       -0.2711
      8 C         141.5378  139.7674  161.0522 C.3     1  UNL1        0.0933
      9 C         140.8238  139.6829  163.7289 C.3     1  UNL1        0.0576
     10 C         139.6884  140.5624  164.1616 C.3     1  UNL1        0.0163
     11 C         139.5965  141.0219  165.5866 C.3     1  UNL1        0.0057
     12 C         140.6401  140.6019  166.5788 C.3     1  UNL1        0.0224
     13 C         141.7755  139.7223  166.1461 C.3     1  UNL1        0.0057
     14 C         141.8674  139.2628  164.7212 C.3     1  UNL1        0.0163
     15 C         140.5481  141.0614  168.0037 C.ar    1  UNL1       -0.0223
     16 C         140.6433  142.5228  168.3281 C.ar    1  UNL1       -0.0012
     17 C         140.5514  142.9823  169.7531 C.ar    1  UNL1        0.0363
     18 C         140.3643  141.9804  170.8536 C.ar    1  UNL1        0.1337
     19 O         140.2724  142.4398  172.2785 O.3     1  UNL1       -0.5055
     20 C         140.2692  140.5190  170.5292 C.ar    1  UNL1        0.0363
     21 C         140.3611  140.0595  169.1043 C.ar    1  UNL1       -0.0012
     22 H         140.3318  143.3527  172.4812 H       1  UNL1        0.2922
     23 C         140.1105  137.9453  156.4835 C.3     1  UNL1        0.1759
     24 N         140.6320  136.5743  156.1698 N.am    1  UNL1       -0.2931
     25 C         142.1103  136.3206  156.1499 C.2     1  UNL1        0.2462
     26 O         143.0670  137.4379  156.4436 O.2     1  UNL1       -0.2701
     27 H         140.0041  135.8410  155.9770 H       1  UNL1        0.1502
     28 C         142.6318  134.9496  155.8361 C.ar    1  UNL1        0.0533
     29 C         142.2324  134.2689  154.5606 C.ar    1  UNL1        0.0045
     30 C         142.7539  132.8980  154.2469 C.ar    1  UNL1        0.0001
     31 C         143.6748  132.2076  155.2088 C.ar    1  UNL1        0.0039
     32 C         144.0743  132.8883  156.4844 C.ar    1  UNL1        0.0716
     33 C         143.5527  134.2592  156.7981 C.ar    1  UNL1        0.0084
     34 C         144.9952  132.1979  157.4463 C.3     1  UNL1        0.4186
     35 F         145.9161  131.5076  158.4083 F       1  UNL1       -0.1659
     36 F         144.7156  133.2553  158.4729 F       1  UNL1       -0.1659
     37 F         145.2748  131.1406  156.4198 F       1  UNL1       -0.1659
@<TRIPOS>BOND
     1     1     2    2
     2     2    23    1
     3    23    24    1
     4    24    25   am
     5    25    26    2
     6    25    28    1
     7    28    29   ar
     8    29    30   ar
     9    30    31   ar
    10    31    32   ar
    11    32    34    1
    12    34    35    1
    13    34    36    1
    14    34    37    1
    15    32    33   ar
    16     2     3   am
    17     3     5    1
    18     5     6    1
    19     6     7    1
    20     9     7    1
    21     9    10    1
    22    10    11    1
    23    11    12    1
    24    12    15    1
    25    15    16   ar
    26    16    17   ar
    27    17    18   ar
    28    18    19    1
    29    18    20   ar
    30    20    21   ar
    31    12    13    1
    32    13    14    1
    33     7     8    1
    34    33    28   ar
    35     8     5    1
    36    14     9    1
    37    21    15   ar
    38    24    27    1
    39     3     4    1
    40    19    22    1
@<TRIPOS>MOLECULE
*****
 37 40 0 0 0
SMALL
GASTEIGER

@<TRIPOS>ATOM
      1 O         141.8413  138.2249  158.3950 O.2     1  UNL1       -0.2733
      2 C         140.4862  138.0719  157.7701 C.2     1  UNL1        0.2426
      3 N         139.2526  138.3492  158.5770 N.am    1  UNL1       -0.3018
      4 H         138.3632  138.2488  158.1668 H       1  UNL1        0.1495
      5 C         139.3739  138.7795  160.0088 C.3     1  UNL1        0.1035
      6 C         139.3975  140.0993  160.7213 C.3     1  UNL1        0.0933
      7 N         139.5454  139.3882  162.0337 N.3     1  UNL1       -0.2711
      8 C         139.5218  138.0684  161.3212 C.3     1  UNL1        0.0933
      9 C         139.6667  139.8185  163.4655 C.3     1  UNL1        0.0576
     10 C         138.4465  139.8821  164.3355 C.3     1  UNL1        0.0163
     11 C         138.5678  140.3125  165.7674 C.3     1  UNL1        0.0057
     12 C         139.9094  140.6792  166.3291 C.3     1  UNL1        0.0224
     13 C         141.1297  140.6156  165.4591 C.3     1  UNL1        0.0057
     14 C         141.0084  140.1853  164.0274 C.3     1  UNL1        0.0163
     15 C         140.0307  141.1096  167.7609 C.ar    1  UNL1       -0.0223
     16 C         139.6363  140.1707  168.8623 C.ar    1  UNL1       -0.0012
     17 C         139.7576  140.6011  170.2941 C.ar    1  UNL1        0.0363
     18 C         140.2733  141.9703  170.6245 C.ar    1  UNL1        0.1337
     19 O         140.3947  142.4007  172.0564 O.3     1  UNL1       -0.5055
     20 C         140.6677  142.9092  169.5232 C.ar    1  UNL1        0.0363
     21 C         140.5464  142.4789  168.0914 C.ar    1  UNL1       -0.0012
     22 H         140.1483  141.8143  172.7444 H       1  UNL1        0.2922
     23 C         140.3649  137.6416  156.3383 C.3     1  UNL1        0.1759
     24 N         140.7127  136.2363  155.9454 N.am    1  UNL1       -0.2931
     25 C         142.1254  135.8869  155.5821 C.2     1  UNL1        0.2462
     26 O         143.1904  136.9428  155.6116 O.2     1  UNL1       -0.2701
     27 H         140.0136  135.5433  155.9260 H       1  UNL1        0.1502
     28 C         142.4732  134.4816  155.1892 C.ar    1  UNL1        0.0533
     29 C         142.1356  133.9815  153.8159 C.ar    1  UNL1        0.0045
     30 C         142.4834  132.5763  153.4231 C.ar    1  UNL1        0.0001
     31 C         143.1687  131.6712  154.4035 C.ar    1  UNL1        0.0039
     32 C         143.5063  132.1714  155.7768 C.ar    1  UNL1        0.0716
     33 C         143.1585  133.5766  156.1696 C.ar    1  UNL1        0.0084
     34 C         144.1916  131.2663  156.7572 C.3     1  UNL1        0.4186
     35 F         144.8769  130.3612  157.7376 F       1  UNL1       -0.1659
     36 F         145.5258  131.7439  156.2654 F       1  UNL1       -0.1659
     37 F         142.8574  130.7887  157.2489 F       1  UNL1       -0.1659
@<TRIPOS>BOND
     1     1     2    2
     2     2    23    1
     3    23    24    1
     4    24    25   am
     5    25    26    2
     6    25    28    1
     7    28    29   ar
     8    29    30   ar
     9    30    31   ar
    10    31    32   ar
    11    32    34    1
    12    34    35    1
    13    34    36    1
    14    34    37    1
    15    32    33   ar
    16     2     3   am
    17     3     5    1
    18     5     6    1
    19     6     7    1
    20     9     7    1
    21     9    10    1
    22    10    11    1
    23    11    12    1
    24    12    15    1
    25    15    16   ar
    26    16    17   ar
    27    17    18   ar
    28    18    19    1
    29    18    20   ar
    30    20    21   ar
    31    12    13    1
    32    13    14    1
    33     7     8    1
    34    33    28   ar
    35     8     5    1
    36    14     9    1
    37    21    15   ar
    38    24    27    1
    39     3     4    1
    40    19    22    1
@<TRIPOS>MOLECULE
*****
 37 40 0 0 0
SMALL
GASTEIGER

@<TRIPOS>ATOM
      1 O         143.2260  140.1434  158.0693 O.2     1  UNL1       -0.2733
      2 C         143.1811  138.6717  157.7827 C.2     1  UNL1        0.2426
      3 N         143.0405  137.6920  158.9098 N.am    1  UNL1       -0.3018
      4 H         143.0110  136.7261  158.7216 H       1  UNL1        0.1495
      5 C         142.9447  138.1840  160.3236 C.3     1  UNL1        0.1035
      6 C         141.8391  138.3128  161.3292 C.3     1  UNL1        0.0933
      7 N         142.8091  138.8797  162.3230 N.3     1  UNL1       -0.2711
      8 C         143.9147  138.7509  161.3175 C.3     1  UNL1        0.0933
      9 C         142.7133  139.3716  163.7368 C.3     1  UNL1        0.0576
     10 C         142.2991  140.7868  164.0120 C.3     1  UNL1        0.0163
     11 C         142.2033  141.2787  165.4259 C.3     1  UNL1        0.0057
     12 C         142.5216  140.3555  166.5644 C.3     1  UNL1        0.0224
     13 C         142.9357  138.9403  166.2892 C.3     1  UNL1        0.0057
     14 C         143.0316  138.4484  164.8754 C.3     1  UNL1        0.0163
     15 C         142.4257  140.8474  167.9782 C.ar    1  UNL1       -0.0223
     16 C         142.2998  142.3164  168.2542 C.ar    1  UNL1       -0.0012
     17 C         142.2039  142.8083  169.6681 C.ar    1  UNL1        0.0363
     18 C         142.2340  141.8313  170.8058 C.ar    1  UNL1        0.1337
     19 O         142.1382  142.3232  172.2196 O.3     1  UNL1       -0.5055
     20 C         142.3600  140.3623  170.5297 C.ar    1  UNL1        0.0363
     21 C         142.4558  139.8703  169.1160 C.ar    1  UNL1       -0.0012
     22 H         142.0595  143.2408  172.3921 H       1  UNL1        0.2922
     23 C         143.2769  138.1797  156.3689 C.3     1  UNL1        0.1759
     24 N         143.6499  136.7528  156.0950 N.am    1  UNL1       -0.2931
     25 C         142.5806  135.7076  155.9763 C.2     1  UNL1        0.2462
     26 O         141.1383  136.0892  156.1316 O.2     1  UNL1       -0.2701
     27 H         144.5966  136.5024  155.9931 H       1  UNL1        0.1502
     28 C         142.9536  134.2807  155.7024 C.ar    1  UNL1        0.0533
     29 C         142.6334  133.6638  154.3732 C.ar    1  UNL1        0.0045
     30 C         143.0064  132.2370  154.0993 C.ar    1  UNL1        0.0001
     31 C         143.6996  131.4271  155.1546 C.ar    1  UNL1        0.0039
     32 C         144.0198  132.0441  156.4838 C.ar    1  UNL1        0.0716
     33 C         143.6468  133.4709  156.7577 C.ar    1  UNL1        0.0084
     34 C         144.7130  131.2343  157.5391 C.3     1  UNL1        0.4186
     35 F         145.4062  130.4244  158.5944 F       1  UNL1       -0.1659
     36 F         143.6240  130.2054  157.4649 F       1  UNL1       -0.1659
     37 F         145.8020  132.2631  157.6133 F       1  UNL1       -0.1659
@<TRIPOS>BOND
     1     1     2    2
     2     2    23    1
     3    23    24    1
     4    24    25   am
     5    25    26    2
     6    25    28    1
     7    28    29   ar
     8    29    30   ar
     9    30    31   ar
    10    31    32   ar
    11    32    34    1
    12    34    35    1
    13    34    36    1
    14    34    37    1
    15    32    33   ar
    16     2     3   am
    17     3     5    1
    18     5     6    1
    19     6     7    1
    20     9     7    1
    21     9    10    1
    22    10    11    1
    23    11    12    1
    24    12    15    1
    25    15    16   ar
    26    16    17   ar
    27    17    18   ar
    28    18    19    1
    29    18    20   ar
    30    20    21   ar
    31    12    13    1
    32    13    14    1
    33     7     8    1
    34    33    28   ar
    35     8     5    1
    36    14     9    1
    37    21    15   ar
    38    24    27    1
    39     3     4    1
    40    19    22    1
@<TRIPOS>MOLECULE
*****
 37 40 0 0 0
SMALL
GASTEIGER

@<TRIPOS>ATOM
      1 O         139.7683  138.6174  158.4896 O.2     1  UNL1       -0.2733
      2 C         140.9992  137.9774  157.9193 C.2     1  UNL1        0.2426
      3 N         142.2222  137.8121  158.7719 N.am    1  UNL1       -0.3018
      4 H         143.0301  137.3921  158.3975 H       1  UNL1        0.1495
      5 C         142.2143  138.2867  160.1948 C.3     1  UNL1        0.1035
      6 C         143.0666  139.2154  161.0079 C.3     1  UNL1        0.0933
      7 N         142.2031  138.9579  162.2072 N.3     1  UNL1       -0.2711
      8 C         141.3509  138.0292  161.3941 C.3     1  UNL1        0.0933
      9 C         142.1953  139.4325  163.6300 C.3     1  UNL1        0.0576
     10 C         143.0674  138.7614  164.6493 C.3     1  UNL1        0.0163
     11 C         143.0595  139.2361  166.0723 C.3     1  UNL1        0.0057
     12 C         142.1795  140.3818  166.4759 C.3     1  UNL1        0.0224
     13 C         141.3073  141.0528  165.4566 C.3     1  UNL1        0.0057
     14 C         141.3152  140.5782  164.0337 C.3     1  UNL1        0.0163
     15 C         142.1716  140.8564  167.8988 C.ar    1  UNL1       -0.0223
     16 C         142.8494  142.1437  168.2638 C.ar    1  UNL1       -0.0012
     17 C         142.8415  142.6183  169.6867 C.ar    1  UNL1        0.0363
     18 C         142.1558  141.8055  170.7446 C.ar    1  UNL1        0.1337
     19 O         142.1479  142.2801  172.1676 O.3     1  UNL1       -0.5055
     20 C         141.4780  140.5182  170.3796 C.ar    1  UNL1        0.0363
     21 C         141.4859  140.0436  168.9567 C.ar    1  UNL1       -0.0012
     22 H         142.5713  143.0843  172.3956 H       1  UNL1        0.2922
     23 C         141.0072  137.5029  156.4964 C.3     1  UNL1        0.1759
     24 N         141.3190  136.0688  156.1858 N.am    1  UNL1       -0.2931
     25 C         142.7443  135.6036  156.1424 C.2     1  UNL1        0.2462
     26 O         143.8579  136.5723  156.4096 O.2     1  UNL1       -0.2701
     27 H         140.5881  135.4330  156.0104 H       1  UNL1        0.1502
     28 C         143.0561  134.1695  155.8318 C.ar    1  UNL1        0.0533
     29 C         142.6854  133.5935  154.4973 C.ar    1  UNL1        0.0045
     30 C         142.9972  132.1595  154.1868 C.ar    1  UNL1        0.0001
     31 C         143.6796  131.3016  155.2107 C.ar    1  UNL1        0.0039
     32 C         144.0502  131.8777  156.5451 C.ar    1  UNL1        0.0716
     33 C         143.7385  133.3116  156.8556 C.ar    1  UNL1        0.0084
     34 C         144.7326  131.0197  157.5690 C.3     1  UNL1        0.4186
     35 F         145.4150  130.1618  158.5928 F       1  UNL1       -0.1659
     36 F         143.6910  129.9582  157.3737 F       1  UNL1       -0.1659
     37 F         145.7742  132.0813  157.7643 F       1  UNL1       -0.1659
@<TRIPOS>BOND
     1     1     2    2
     2     2    23    1
     3    23    24    1
     4    24    25   am
     5    25    26    2
     6    25    28    1
     7    28    29   ar
     8    29    30   ar
     9    30    31   ar
    10    31    32   ar
    11    32    34    1
    12    34    35    1
    13    34    36    1
    14    34    37    1
    15    32    33   ar
    16     2     3   am
    17     3     5    1
    18     5     6    1
    19     6     7    1
    20     9     7    1
    21     9    10    1
    22    10    11    1
    23    11    12    1
    24    12    15    1
    25    15    16   ar
    26    16    17   ar
    27    17    18   ar
    28    18    19    1
    29    18    20   ar
    30    20    21   ar
    31    12    13    1
    32    13    14    1
    33     7     8    1
    34    33    28   ar
    35     8     5    1
    36    14     9    1
    37    21    15   ar
    38    24    27    1
    39     3     4    1
    40    19    22    1
@<TRIPOS>MOLECULE
*****
 37 40 0 0 0
SMALL
GASTEIGER

@<TRIPOS>ATOM
      1 O         139.3908  138.3464  158.3104 O.2     1  UNL1       -0.2733
      2 C         140.7568  137.9779  157.8120 C.2     1  UNL1        0.2426
      3 N         141.9401  138.0710  158.7290 N.am    1  UNL1       -0.3018
      4 H         142.8366  137.8291  158.4019 H       1  UNL1        0.1495
      5 C         141.7575  138.5325  160.1446 C.3     1  UNL1        0.1035
      6 C         141.8040  139.8598  160.8417 C.3     1  UNL1        0.0933
      7 N         141.4994  139.1853  162.1464 N.3     1  UNL1       -0.2711
      8 C         141.4529  137.8579  161.4492 C.3     1  UNL1        0.0933
      9 C         141.3168  139.6468  163.5618 C.3     1  UNL1        0.0576
     10 C         142.4873  139.6713  164.4996 C.3     1  UNL1        0.0163
     11 C         142.3047  140.1329  165.9151 C.3     1  UNL1        0.0057
     12 C         140.9516  140.5700  166.3928 C.3     1  UNL1        0.0224
     13 C         139.7812  140.5455  165.4551 C.3     1  UNL1        0.0057
     14 C         139.9637  140.0839  164.0396 C.3     1  UNL1        0.0163
     15 C         140.7691  141.0315  167.8083 C.ar    1  UNL1       -0.0223
     16 C         140.6837  142.4976  168.1140 C.ar    1  UNL1       -0.0012
     17 C         140.5012  142.9591  169.5296 C.ar    1  UNL1        0.0363
     18 C         140.4040  141.9546  170.6393 C.ar    1  UNL1        0.1337
     19 O         140.2214  142.4162  172.0549 O.3     1  UNL1       -0.5055
     20 C         140.4893  140.4886  170.3336 C.ar    1  UNL1        0.0363
     21 C         140.6719  140.0271  168.9181 C.ar    1  UNL1       -0.0012
     22 H         140.1681  143.3320  172.2459 H       1  UNL1        0.2922
     23 C         140.9394  137.5164  156.3965 C.3     1  UNL1        0.1759
     24 N         140.9646  136.0496  156.0832 N.am    1  UNL1       -0.2931
     25 C         142.2001  135.2450  156.3588 C.2     1  UNL1        0.2462
     26 O         143.4104  135.9070  156.9477 O.2     1  UNL1       -0.2701
     27 H         140.1702  135.6151  155.6966 H       1  UNL1        0.1502
     28 C         142.2253  133.7782  156.0454 C.ar    1  UNL1        0.0533
     29 C         143.2526  132.8922  156.6854 C.ar    1  UNL1        0.0045
     30 C         143.2777  131.4255  156.3720 C.ar    1  UNL1        0.0001
     31 C         142.2756  130.8449  155.4188 C.ar    1  UNL1        0.0039
     32 C         141.2484  131.7310  154.7788 C.ar    1  UNL1        0.0716
     33 C         141.2232  133.1976  155.0922 C.ar    1  UNL1        0.0084
     34 C         140.2463  131.1504  153.8256 C.3     1  UNL1        0.4186
     35 F         139.2442  130.5698  152.8723 F       1  UNL1       -0.1659
     36 F         139.3028  130.9066  154.9659 F       1  UNL1       -0.1659
     37 F         141.1898  131.3942  152.6852 F       1  UNL1       -0.1659
@<TRIPOS>BOND
     1     1     2    2
     2     2    23    1
     3    23    24    1
     4    24    25   am
     5    25    26    2
     6    25    28    1
     7    28    29   ar
     8    29    30   ar
     9    30    31   ar
    10    31    32   ar
    11    32    34    1
    12    34    35    1
    13    34    36    1
    14    34    37    1
    15    32    33   ar
    16     2     3   am
    17     3     5    1
    18     5     6    1
    19     6     7    1
    20     9     7    1
    21     9    10    1
    22    10    11    1
    23    11    12    1
    24    12    15    1
    25    15    16   ar
    26    16    17   ar
    27    17    18   ar
    28    18    19    1
    29    18    20   ar
    30    20    21   ar
    31    12    13    1
    32    13    14    1
    33     7     8    1
    34    33    28   ar
    35     8     5    1
    36    14     9    1
    37    21    15   ar
    38    24    27    1
    39     3     4    1
    40    19    22    1
@<TRIPOS>MOLECULE
*****
 37 40 0 0 0
SMALL
GASTEIGER

@<TRIPOS>ATOM
      1 O         142.0255  145.6732  158.2926 O.2     1  UNL1       -0.2733
      2 C         140.8311  145.0569  157.6267 C.2     1  UNL1        0.2426
      3 N         139.8853  144.2059  158.4214 N.am    1  UNL1       -0.3018
      4 H         139.1014  143.8014  157.9843 H       1  UNL1        0.1495
      5 C         140.1341  143.9712  159.8819 C.3     1  UNL1        0.1035
      6 C         140.5015  142.7809  160.7174 C.3     1  UNL1        0.0933
      7 N         140.4858  143.6393  161.9474 N.3     1  UNL1       -0.2711
      8 C         140.1184  144.8297  161.1119 C.3     1  UNL1        0.0933
      9 C         140.7346  143.4046  163.4078 C.3     1  UNL1        0.0576
     10 C         142.1114  143.0511  163.8868 C.3     1  UNL1        0.0163
     11 C         142.3601  142.8164  165.3474 C.3     1  UNL1        0.0057
     12 C         141.2320  142.9351  166.3288 C.3     1  UNL1        0.0224
     13 C         139.8552  143.2885  165.8498 C.3     1  UNL1        0.0057
     14 C         139.6064  143.5233  164.3894 C.3     1  UNL1        0.0163
     15 C         141.4807  142.7004  167.7893 C.ar    1  UNL1       -0.0223
     16 C         142.8010  142.1552  168.2471 C.ar    1  UNL1       -0.0012
     17 C         143.0497  141.9204  169.7077 C.ar    1  UNL1        0.0363
     18 C         141.9782  142.2310  170.7103 C.ar    1  UNL1        0.1337
     19 O         142.2269  141.9963  172.1709 O.3     1  UNL1       -0.5055
     20 C         140.6579  142.7762  170.2525 C.ar    1  UNL1        0.0363
     21 C         140.4092  143.0109  168.7920 C.ar    1  UNL1       -0.0012
     22 H         143.0516  141.6557  172.4569 H       1  UNL1        0.2922
     23 C         140.5823  145.2915  156.1663 C.3     1  UNL1        0.1759
     24 N         140.6622  146.6805  155.6055 N.am    1  UNL1       -0.2931
     25 C         139.4605  147.2956  154.9516 C.2     1  UNL1        0.2462
     26 O         138.1789  146.5217  154.8584 O.2     1  UNL1       -0.2701
     27 H         141.5033  147.1884  155.6667 H       1  UNL1        0.1502
     28 C         139.5404  148.6846  154.3908 C.ar    1  UNL1        0.0533
     29 C         140.0689  148.9044  153.0043 C.ar    1  UNL1        0.0045
     30 C         140.1487  150.2933  152.4436 C.ar    1  UNL1        0.0001
     31 C         139.7002  151.4624  153.2694 C.ar    1  UNL1        0.0039
     32 C         139.1717  151.2426  154.6559 C.ar    1  UNL1        0.0716
     33 C         139.0919  149.8537  155.2166 C.ar    1  UNL1        0.0084
     34 C         138.7231  152.4118  155.4817 C.3     1  UNL1        0.4186
     35 F         138.2746  153.5809  156.3075 F       1  UNL1       -0.1659
     36 F         139.1406  151.6909  156.7291 F       1  UNL1       -0.1659
     37 F         138.3057  153.1327  154.2343 F       1  UNL1       -0.1659
@<TRIPOS>BOND
     1     1     2    2
     2     2    23    1
     3    23    24    1
     4    24    25   am
     5    25    26    2
     6    25    28    1
     7    28    29   ar
     8    29    30   ar
     9    30    31   ar
    10    31    32   ar
    11    32    34    1
    12    34    35    1
    13    34    36    1
    14    34    37    1
    15    32    33   ar
    16     2     3   am
    17     3     5    1
    18     5     6    1
    19     6     7    1
    20     9     7    1
    21     9    10    1
    22    10    11    1
    23    11    12    1
    24    12    15    1
    25    15    16   ar
    26    16    17   ar
    27    17    18   ar
    28    18    19    1
    29    18    20   ar
    30    20    21   ar
    31    12    13    1
    32    13    14    1
    33     7     8    1
    34    33    28   ar
    35     8     5    1
    36    14     9    1
    37    21    15   ar
    38    24    27    1
    39     3     4    1
    40    19    22    1
@<TRIPOS>MOLECULE
*****
 37 40 0 0 0
SMALL
GASTEIGER

@<TRIPOS>ATOM
      1 O         144.7258  141.5237  157.9184 O.2     1  UNL1       -0.2733
      2 C         144.1791  140.2950  157.2539 C.2     1  UNL1        0.2426
      3 N         143.5100  139.2330  158.0751 N.am    1  UNL1       -0.3018
      4 H         143.1512  138.4266  157.6390 H       1  UNL1        0.1495
      5 C         143.3875  139.3998  159.5608 C.3     1  UNL1        0.1035
      6 C         144.1293  138.8704  160.7523 C.3     1  UNL1        0.0933
      7 N         143.2142  139.6355  161.6619 N.3     1  UNL1       -0.2711
      8 C         142.4724  140.1648  160.4705 C.3     1  UNL1        0.0933
      9 C         143.0917  139.8021  163.1475 C.3     1  UNL1        0.0576
     10 C         143.6899  141.0024  163.8195 C.3     1  UNL1        0.0163
     11 C         143.5673  141.1691  165.3052 C.3     1  UNL1        0.0057
     12 C         142.8467  140.1354  166.1189 C.3     1  UNL1        0.0224
     13 C         142.2485  138.9351  165.4470 C.3     1  UNL1        0.0057
     14 C         142.3710  138.7684  163.9614 C.3     1  UNL1        0.0163
     15 C         142.7241  140.3021  167.6045 C.ar    1  UNL1       -0.0223
     16 C         142.5625  139.0975  168.4836 C.ar    1  UNL1       -0.0012
     17 C         142.4400  139.2642  169.9693 C.ar    1  UNL1        0.0363
     18 C         142.4791  140.6355  170.5759 C.ar    1  UNL1        0.1337
     19 O         142.3566  140.8022  172.0616 O.3     1  UNL1       -0.5055
     20 C         142.6408  141.8401  169.6968 C.ar    1  UNL1        0.0363
     21 C         142.7633  141.6734  168.2112 C.ar    1  UNL1       -0.0012
     22 H         142.2556  140.0497  172.6107 H       1  UNL1        0.2922
     23 C         144.3017  140.1283  155.7683 C.3     1  UNL1        0.1759
     24 N         143.3851  139.1898  155.0408 N.am    1  UNL1       -0.2931
     25 C         143.6778  137.7188  155.0231 C.2     1  UNL1        0.2462
     26 O         144.8871  137.1861  155.7330 O.2     1  UNL1       -0.2701
     27 H         142.5914  139.5394  154.5749 H       1  UNL1        0.1502
     28 C         142.7612  136.7803  154.2956 C.ar    1  UNL1        0.0533
     29 C         141.9117  137.2858  153.1674 C.ar    1  UNL1        0.0045
     30 C         140.9952  136.3474  152.4400 C.ar    1  UNL1        0.0001
     31 C         140.9282  134.9034  152.8406 C.ar    1  UNL1        0.0039
     32 C         141.7777  134.3979  153.9688 C.ar    1  UNL1        0.0716
     33 C         142.6942  135.3364  154.6962 C.ar    1  UNL1        0.0084
     34 C         141.7107  132.9540  154.3694 C.3     1  UNL1        0.4186
     35 F         141.6437  131.5100  154.7701 F       1  UNL1       -0.1659
     36 F         141.1568  133.3505  155.7058 F       1  UNL1       -0.1659
     37 F         142.2646  132.5575  153.0330 F       1  UNL1       -0.1659
@<TRIPOS>BOND
     1     1     2    2
     2     2    23    1
     3    23    24    1
     4    24    25   am
     5    25    26    2
     6    25    28    1
     7    28    29   ar
     8    29    30   ar
     9    30    31   ar
    10    31    32   ar
    11    32    34    1
    12    34    35    1
    13    34    36    1
    14    34    37    1
    15    32    33   ar
    16     2     3   am
    17     3     5    1
    18     5     6    1
    19     6     7    1
    20     9     7    1
    21     9    10    1
    22    10    11    1
    23    11    12    1
    24    12    15    1
    25    15    16   ar
    26    16    17   ar
    27    17    18   ar
    28    18    19    1
    29    18    20   ar
    30    20    21   ar
    31    12    13    1
    32    13    14    1
    33     7     8    1
    34    33    28   ar
    35     8     5    1
    36    14     9    1
    37    21    15   ar
    38    24    27    1
    39     3     4    1
    40    19    22    1
@<TRIPOS>MOLECULE
*****
 37 40 0 0 0
SMALL
GASTEIGER

@<TRIPOS>ATOM
      1 O         138.5619  140.7234  158.3475 O.2     1  UNL1       -0.2733
      2 C         138.4180  142.1411  157.8791 C.2     1  UNL1        0.2426
      3 N         138.6605  143.2740  158.8318 N.am    1  UNL1       -0.3018
      4 H         138.5660  144.2045  158.5244 H       1  UNL1        0.1495
      5 C         139.0470  142.9892  160.2530 C.3     1  UNL1        0.1035
      6 C         140.3424  142.7660  160.9755 C.3     1  UNL1        0.0933
      7 N         139.5936  142.5865  162.2627 N.3     1  UNL1       -0.2711
      8 C         138.2981  142.8097  161.5403 C.3     1  UNL1        0.0933
      9 C         139.9801  142.3017  163.6838 C.3     1  UNL1        0.0576
     10 C         140.5538  140.9655  164.0517 C.3     1  UNL1        0.0163
     11 C         140.9403  140.6807  165.4728 C.3     1  UNL1        0.0057
     12 C         140.7531  141.7322  166.5260 C.3     1  UNL1        0.0224
     13 C         140.1795  143.0685  166.1582 C.3     1  UNL1        0.0057
     14 C         139.7930  143.3532  164.7371 C.3     1  UNL1        0.0163
     15 C         141.1396  141.4474  167.9471 C.ar    1  UNL1       -0.0223
     16 C         140.2424  140.6173  168.8164 C.ar    1  UNL1       -0.0012
     17 C         140.6290  140.3325  170.2376 C.ar    1  UNL1        0.0363
     18 C         141.9127  140.8779  170.7893 C.ar    1  UNL1        0.1337
     19 O         142.2993  140.5931  172.2104 O.3     1  UNL1       -0.5055
     20 C         142.8100  141.7081  169.9199 C.ar    1  UNL1        0.0363
     21 C         142.4235  141.9928  168.4989 C.ar    1  UNL1       -0.0012
     22 H         141.7388  140.0746  172.7535 H       1  UNL1        0.2922
     23 C         138.0315  142.4259  156.4581 C.3     1  UNL1        0.1759
     24 N         138.2412  143.7958  155.8839 N.am    1  UNL1       -0.2931
     25 C         139.6188  144.2424  155.4933 C.2     1  UNL1        0.2462
     26 O         140.7868  143.3192  155.6767 O.2     1  UNL1       -0.2701
     27 H         137.4747  144.4017  155.7635 H       1  UNL1        0.1502
     28 C         139.8286  145.6123  154.9191 C.ar    1  UNL1        0.0533
     29 C         140.7101  145.7958  153.7194 C.ar    1  UNL1        0.0045
     30 C         140.9198  147.1656  153.1454 C.ar    1  UNL1        0.0001
     31 C         140.2480  148.3519  153.7709 C.ar    1  UNL1        0.0039
     32 C         139.3664  148.1684  154.9705 C.ar    1  UNL1        0.0716
     33 C         139.1567  146.7986  155.5446 C.ar    1  UNL1        0.0084
     34 C         138.6946  149.3547  155.5961 C.3     1  UNL1        0.4186
     35 F         138.0228  150.5410  156.2216 F       1  UNL1       -0.1659
     36 F         138.8973  150.1361  154.3319 F       1  UNL1       -0.1659
     37 F         138.4919  148.5733  156.8603 F       1  UNL1       -0.1659
@<TRIPOS>BOND
     1     1     2    2
     2     2    23    1
     3    23    24    1
     4    24    25   am
     5    25    26    2
     6    25    28    1
     7    28    29   ar
     8    29    30   ar
     9    30    31   ar
    10    31    32   ar
    11    32    34    1
    12    34    35    1
    13    34    36    1
    14    34    37    1
    15    32    33   ar
    16     2     3   am
    17     3     5    1
    18     5     6    1
    19     6     7    1
    20     9     7    1
    21     9    10    1
    22    10    11    1
    23    11    12    1
    24    12    15    1
    25    15    16   ar
    26    16    17   ar
    27    17    18   ar
    28    18    19    1
    29    18    20   ar
    30    20    21   ar
    31    12    13    1
    32    13    14    1
    33     7     8    1
    34    33    28   ar
    35     8     5    1
    36    14     9    1
    37    21    15   ar
    38    24    27    1
    39     3     4    1
    40    19    22    1
@<TRIPOS>MOLECULE
*****
 37 40 0 0 0
SMALL
GASTEIGER

@<TRIPOS>ATOM
      1 O         137.2491  140.2285  158.1900 O.2     1  UNL1       -0.2733
      2 C         137.4585  141.5486  157.5092 C.2     1  UNL1        0.2426
      3 N         138.2460  142.6277  158.1913 N.am    1  UNL1       -0.3018
      4 H         138.3834  143.4941  157.7444 H       1  UNL1        0.1495
      5 C         138.8243  142.3867  159.5543 C.3     1  UNL1        0.1035
      6 C         140.1985  142.1144  160.0904 C.3     1  UNL1        0.0933
      7 N         139.6421  142.0459  161.4817 N.3     1  UNL1       -0.2711
      8 C         138.2679  142.3182  160.9456 C.3     1  UNL1        0.0933
      9 C         140.2204  141.8049  162.8446 C.3     1  UNL1        0.0576
     10 C         140.0826  142.8487  163.9130 C.3     1  UNL1        0.0163
     11 C         140.6610  142.6076  165.2760 C.3     1  UNL1        0.0057
     12 C         141.3770  141.3229  165.5704 C.3     1  UNL1        0.0224
     13 C         141.5148  140.2791  164.5019 C.3     1  UNL1        0.0057
     14 C         140.9365  140.5201  163.1390 C.3     1  UNL1        0.0163
     15 C         141.9553  141.0819  166.9333 C.ar    1  UNL1       -0.0223
     16 C         141.8469  139.7257  167.5649 C.ar    1  UNL1       -0.0012
     17 C         142.4252  139.4848  168.9279 C.ar    1  UNL1        0.0363
     18 C         143.1119  140.6000  169.6591 C.ar    1  UNL1        0.1337
     19 O         143.6902  140.3591  171.0220 O.3     1  UNL1       -0.5055
     20 C         143.2203  141.9562  169.0274 C.ar    1  UNL1        0.0363
     21 C         142.6420  142.1972  167.6645 C.ar    1  UNL1       -0.0012
     22 H         143.6225  139.5119  171.4166 H       1  UNL1        0.2922
     23 C         136.8803  141.7896  156.1463 C.3     1  UNL1        0.1759
     24 N         135.3964  141.9273  155.9747 N.am    1  UNL1       -0.2931
     25 C         134.5388  140.7029  155.8512 C.2     1  UNL1        0.2462
     26 O         135.1650  139.3407  155.8994 O.2     1  UNL1       -0.2701
     27 H         134.9854  142.8214  155.9431 H       1  UNL1        0.1502
     28 C         133.0550  140.8406  155.6797 C.ar    1  UNL1        0.0533
     29 C         132.5035  141.7590  154.6297 C.ar    1  UNL1        0.0045
     30 C         131.0197  141.8967  154.4582 C.ar    1  UNL1        0.0001
     31 C         130.0875  141.1160  155.3366 C.ar    1  UNL1        0.0039
     32 C         130.6390  140.1977  156.3865 C.ar    1  UNL1        0.0716
     33 C         132.1228  140.0600  156.5580 C.ar    1  UNL1        0.0084
     34 C         129.7068  139.4171  157.2649 C.3     1  UNL1        0.4186
     35 F         128.7746  138.6364  158.1433 F       1  UNL1       -0.1659
     36 F         130.8588  139.0315  158.1448 F       1  UNL1       -0.1659
     37 F         128.5548  139.8027  156.3850 F       1  UNL1       -0.1659
@<TRIPOS>BOND
     1     1     2    2
     2     2    23    1
     3    23    24    1
     4    24    25   am
     5    25    26    2
     6    25    28    1
     7    28    29   ar
     8    29    30   ar
     9    30    31   ar
    10    31    32   ar
    11    32    34    1
    12    34    35    1
    13    34    36    1
    14    34    37    1
    15    32    33   ar
    16     2     3   am
    17     3     5    1
    18     5     6    1
    19     6     7    1
    20     9     7    1
    21     9    10    1
    22    10    11    1
    23    11    12    1
    24    12    15    1
    25    15    16   ar
    26    16    17   ar
    27    17    18   ar
    28    18    19    1
    29    18    20   ar
    30    20    21   ar
    31    12    13    1
    32    13    14    1
    33     7     8    1
    34    33    28   ar
    35     8     5    1
    36    14     9    1
    37    21    15   ar
    38    24    27    1
    39     3     4    1
    40    19    22    1
