@<TRIPOS>MOLECULE
*****
 30 33 0 0 0
SMALL
GASTEIGER

@<TRIPOS>ATOM
      1 O         139.8009  139.8589  167.4841 O.3     1  UNL1       -0.3793
      2 C         139.9991  140.7964  166.3301 C.3     1  UNL1        0.1422
      3 H         139.3845  139.0415  167.1688 H       1  UNL1        0.2108
      4 C         139.5674  140.3912  164.9519 C.ar    1  UNL1        0.0226
      5 C         138.1378  140.5645  164.5324 C.ar    1  UNL1        0.0012
      6 C         137.7061  140.1593  163.1542 C.ar    1  UNL1        0.0204
      7 C         138.7041  139.5807  162.1955 C.ar    1  UNL1        0.0988
      8 N         140.1338  139.4074  162.6150 N.ar    1  UNL1       -0.2441
      9 C         140.5655  139.8126  163.9932 C.ar    1  UNL1        0.0796
     10 C         141.9951  139.6392  164.4127 C.ar    1  UNL1        0.0191
     11 C         142.3500  138.6371  165.4708 C.ar    1  UNL1        0.0129
     12 C         143.7797  138.4637  165.8903 C.ar    1  UNL1        0.0586
     13 CL        144.1346  137.4615  166.9485 Cl      1  UNL1       -0.0822
     14 C         144.8545  139.2925  165.2516 C.ar    1  UNL1        0.0228
     15 C         144.4996  140.2946  164.1935 C.ar    1  UNL1        0.0586
     16 CL        145.5744  141.1235  163.5548 Cl      1  UNL1       -0.0822
     17 C         143.0699  140.4680  163.7740 C.ar    1  UNL1        0.0129
     18 C         140.6289  142.1392  166.5543 C.3     1  UNL1        0.0787
     19 C         140.5498  143.1920  165.4889 C.ar    1  UNL1        0.0035
     20 C         141.7534  143.5005  164.6484 C.ar    1  UNL1       -0.0007
     21 C         141.6742  144.5533  163.5829 C.ar    1  UNL1        0.0204
     22 C         140.3915  145.2978  163.3580 C.ar    1  UNL1        0.0989
     23 N         139.1880  144.9893  164.1984 N.ar    1  UNL1       -0.2426
     24 C         139.2671  143.9364  165.2639 C.ar    1  UNL1        0.0950
     25 C         141.3379  142.4291  167.8441 C.ar    1  UNL1        0.0035
     26 C         142.7699  142.0194  168.0212 C.ar    1  UNL1       -0.0007
     27 C         143.4789  142.3093  169.3109 C.ar    1  UNL1        0.0204
     28 C         142.7559  143.0089  170.4234 C.ar    1  UNL1        0.0989
     29 N         141.3239  143.4186  170.2462 N.ar    1  UNL1       -0.2426
     30 C         140.6149  143.1287  168.9566 C.ar    1  UNL1        0.0950
@<TRIPOS>BOND
     1     2     1    1
     2     2     4    1
     3     4     5   ar
     4     5     6   ar
     5     6     7   ar
     6     7     8   ar
     7     8     9   ar
     8     9    10    1
     9    10    11   ar
    10    11    12   ar
    11    12    13    1
    12    12    14   ar
    13    14    15   ar
    14    15    16    1
    15    15    17   ar
    16     2    18    1
    17    18    19    1
    18    19    20   ar
    19    20    21   ar
    20    21    22   ar
    21    22    23   ar
    22    23    24   ar
    23    18    25    1
    24    25    26   ar
    25    26    27   ar
    26    27    28   ar
    27    28    29   ar
    28    29    30   ar
    29     9     4   ar
    30    17    10   ar
    31    24    19   ar
    32    30    25   ar
    33     1     3    1
@<TRIPOS>MOLECULE
*****
 30 33 0 0 0
SMALL
GASTEIGER

@<TRIPOS>ATOM
      1 O         139.8579  139.8686  167.5219 O.3     1  UNL1       -0.3793
      2 C         140.0482  140.8060  166.3665 C.3     1  UNL1        0.1422
      3 H         139.4366  139.0523  167.2100 H       1  UNL1        0.2108
      4 C         139.6032  140.4023  164.9920 C.ar    1  UNL1        0.0226
      5 C         138.1721  140.5870  164.5825 C.ar    1  UNL1        0.0012
      6 C         137.7271  140.1834  163.2081 C.ar    1  UNL1        0.0204
      7 C         138.7133  139.5950  162.2432 C.ar    1  UNL1        0.0988
      8 N         140.1445  139.4103  162.6526 N.ar    1  UNL1       -0.2441
      9 C         140.5894  139.8139  164.0270 C.ar    1  UNL1        0.0796
     10 C         142.0206  139.6292  164.4365 C.ar    1  UNL1        0.0191
     11 C         143.0984  140.4432  163.7841 C.ar    1  UNL1        0.0129
     12 C         144.5296  140.2585  164.1935 C.ar    1  UNL1        0.0586
     13 CL        145.6074  141.0726  163.5411 Cl      1  UNL1       -0.0822
     14 C         144.8829  139.2597  165.2554 C.ar    1  UNL1        0.0228
     15 C         143.8051  138.4457  165.9077 C.ar    1  UNL1        0.0586
     16 CL        144.1585  137.4468  166.9696 Cl      1  UNL1       -0.0822
     17 C         142.3740  138.6304  165.4983 C.ar    1  UNL1        0.0129
     18 C         140.6834  142.1470  166.5855 C.3     1  UNL1        0.0787
     19 C         141.3889  142.4410  167.8762 C.ar    1  UNL1        0.0035
     20 C         142.8214  142.0344  168.0574 C.ar    1  UNL1       -0.0007
     21 C         143.5268  142.3284  169.3481 C.ar    1  UNL1        0.0204
     22 C         142.7998  143.0289  170.4576 C.ar    1  UNL1        0.0989
     23 N         141.3674  143.4354  170.2763 N.ar    1  UNL1       -0.2426
     24 C         140.6619  143.1414  168.9856 C.ar    1  UNL1        0.0950
     25 C         140.6132  143.1942  165.5137 C.ar    1  UNL1        0.0035
     26 C         141.8120  143.4705  164.6555 C.ar    1  UNL1       -0.0007
     27 C         141.7418  144.5176  163.5838 C.ar    1  UNL1        0.0204
     28 C         140.4729  145.2885  163.3704 C.ar    1  UNL1        0.0989
     29 N         139.2742  145.0122  164.2287 N.ar    1  UNL1       -0.2426
     30 C         139.3443  143.9651  165.3004 C.ar    1  UNL1        0.0950
@<TRIPOS>BOND
     1     2     1    1
     2     2     4    1
     3     4     5   ar
     4     5     6   ar
     5     6     7   ar
     6     7     8   ar
     7     8     9   ar
     8     9    10    1
     9    10    11   ar
    10    11    12   ar
    11    12    13    1
    12    12    14   ar
    13    14    15   ar
    14    15    16    1
    15    15    17   ar
    16     2    18    1
    17    18    19    1
    18    19    20   ar
    19    20    21   ar
    20    21    22   ar
    21    22    23   ar
    22    23    24   ar
    23    18    25    1
    24    25    26   ar
    25    26    27   ar
    26    27    28   ar
    27    28    29   ar
    28    29    30   ar
    29     9     4   ar
    30    17    10   ar
    31    24    19   ar
    32    30    25   ar
    33     1     3    1
@<TRIPOS>MOLECULE
*****
 30 33 0 0 0
SMALL
GASTEIGER

@<TRIPOS>ATOM
      1 O         140.1733  143.0951  167.2377 O.3     1  UNL1       -0.3793
      2 C         141.1101  142.6891  166.1388 C.3     1  UNL1        0.1422
      3 H         139.4211  143.5771  166.8598 H       1  UNL1        0.2108
      4 C         140.7968  143.0465  164.7160 C.ar    1  UNL1        0.0226
      5 C         141.0710  144.4328  164.2131 C.ar    1  UNL1        0.0012
      6 C         140.7578  144.7902  162.7904 C.ar    1  UNL1        0.0204
      7 C         140.1704  143.7613  161.8706 C.ar    1  UNL1        0.0988
      8 N         139.8962  142.3749  162.3735 N.ar    1  UNL1       -0.2441
      9 C         140.2094  142.0175  163.7962 C.ar    1  UNL1        0.0796
     10 C         139.9352  140.6312  164.2990 C.ar    1  UNL1        0.0191
     11 C         138.9195  140.4131  165.3810 C.ar    1  UNL1        0.0129
     12 C         138.6453  139.0267  165.8839 C.ar    1  UNL1        0.0586
     13 CL        137.6295  138.8086  166.9659 Cl      1  UNL1       -0.0822
     14 C         139.3868  137.8585  165.3048 C.ar    1  UNL1        0.0228
     15 C         140.4026  138.0767  164.2228 C.ar    1  UNL1        0.0586
     16 CL        141.1442  136.9084  163.6437 Cl      1  UNL1       -0.0822
     17 C         140.6768  139.4630  163.7200 C.ar    1  UNL1        0.0129
     18 C         142.3601  141.9259  166.4626 C.3     1  UNL1        0.0787
     19 C         142.5213  141.2878  167.8105 C.ar    1  UNL1        0.0035
     20 C         142.0309  139.8891  168.0417 C.ar    1  UNL1       -0.0007
     21 C         142.1921  139.2511  169.3896 C.ar    1  UNL1        0.0204
     22 C         142.8437  140.0117  170.5064 C.ar    1  UNL1        0.0989
     23 N         143.3340  141.4103  170.2751 N.ar    1  UNL1       -0.2426
     24 C         143.1728  142.0483  168.9272 C.ar    1  UNL1        0.0950
     25 C         143.4489  141.8006  165.4385 C.ar    1  UNL1        0.0035
     26 C         143.7360  140.4702  164.8080 C.ar    1  UNL1       -0.0007
     27 C         144.8248  140.3449  163.7839 C.ar    1  UNL1        0.0204
     28 C         145.6265  141.5500  163.3903 C.ar    1  UNL1        0.0989
     29 N         145.3394  142.8804  164.0208 N.ar    1  UNL1       -0.2426
     30 C         144.2506  143.0057  165.0449 C.ar    1  UNL1        0.0950
@<TRIPOS>BOND
     1     2     1    1
     2     2     4    1
     3     4     5   ar
     4     5     6   ar
     5     6     7   ar
     6     7     8   ar
     7     8     9   ar
     8     9    10    1
     9    10    11   ar
    10    11    12   ar
    11    12    13    1
    12    12    14   ar
    13    14    15   ar
    14    15    16    1
    15    15    17   ar
    16     2    18    1
    17    18    19    1
    18    19    20   ar
    19    20    21   ar
    20    21    22   ar
    21    22    23   ar
    22    23    24   ar
    23    18    25    1
    24    25    26   ar
    25    26    27   ar
    26    27    28   ar
    27    28    29   ar
    28    29    30   ar
    29     9     4   ar
    30    17    10   ar
    31    24    19   ar
    32    30    25   ar
    33     1     3    1
@<TRIPOS>MOLECULE
*****
 30 33 0 0 0
SMALL
GASTEIGER

@<TRIPOS>ATOM
      1 O         140.1614  143.0561  167.2779 O.3     1  UNL1       -0.3793
      2 C         141.1024  142.6717  166.1747 C.3     1  UNL1        0.1422
      3 H         139.4072  143.5395  166.9058 H       1  UNL1        0.2108
      4 C         140.7896  143.0485  164.7568 C.ar    1  UNL1        0.0226
      5 C         141.0656  144.4410  164.2725 C.ar    1  UNL1        0.0012
      6 C         140.7529  144.8178  162.8547 C.ar    1  UNL1        0.0204
      7 C         140.1642  143.8020  161.9212 C.ar    1  UNL1        0.0988
      8 N         139.8882  142.4094  162.4055 N.ar    1  UNL1       -0.2441
      9 C         140.2009  142.0326  163.8234 C.ar    1  UNL1        0.0796
     10 C         139.9249  140.6401  164.3077 C.ar    1  UNL1        0.0191
     11 C         138.9170  140.4099  165.3945 C.ar    1  UNL1        0.0129
     12 C         138.6410  139.0174  165.8788 C.ar    1  UNL1        0.0586
     13 CL        137.6331  138.7873  166.9657 Cl      1  UNL1       -0.0822
     14 C         139.3728  137.8549  165.2763 C.ar    1  UNL1        0.0228
     15 C         140.3807  138.0850  164.1895 C.ar    1  UNL1        0.0586
     16 CL        141.1126  136.9225  163.5869 Cl      1  UNL1       -0.0822
     17 C         140.6567  139.4776  163.7052 C.ar    1  UNL1        0.0129
     18 C         142.3560  141.9106  166.4895 C.3     1  UNL1        0.0787
     19 C         143.4394  141.7909  165.4590 C.ar    1  UNL1        0.0035
     20 C         143.7087  140.4686  164.8040 C.ar    1  UNL1       -0.0007
     21 C         144.7922  140.3489  163.7735 C.ar    1  UNL1        0.0204
     22 C         145.6063  141.5516  163.3981 C.ar    1  UNL1        0.0989
     23 N         145.3369  142.8738  164.0530 N.ar    1  UNL1       -0.2426
     24 C         144.2535  142.9935  165.0835 C.ar    1  UNL1        0.0950
     25 C         142.5262  141.2691  167.8347 C.ar    1  UNL1        0.0035
     26 C         142.0459  139.8666  168.0630 C.ar    1  UNL1       -0.0007
     27 C         142.2161  139.2251  169.4081 C.ar    1  UNL1        0.0204
     28 C         142.8667  139.9862  170.5250 C.ar    1  UNL1        0.0989
     29 N         143.3470  141.3887  170.2967 N.ar    1  UNL1       -0.2426
     30 C         143.1768  142.0302  168.9516 C.ar    1  UNL1        0.0950
@<TRIPOS>BOND
     1     2     1    1
     2     2     4    1
     3     4     5   ar
     4     5     6   ar
     5     6     7   ar
     6     7     8   ar
     7     8     9   ar
     8     9    10    1
     9    10    11   ar
    10    11    12   ar
    11    12    13    1
    12    12    14   ar
    13    14    15   ar
    14    15    16    1
    15    15    17   ar
    16     2    18    1
    17    18    19    1
    18    19    20   ar
    19    20    21   ar
    20    21    22   ar
    21    22    23   ar
    22    23    24   ar
    23    18    25    1
    24    25    26   ar
    25    26    27   ar
    26    27    28   ar
    27    28    29   ar
    28    29    30   ar
    29     9     4   ar
    30    17    10   ar
    31    24    19   ar
    32    30    25   ar
    33     1     3    1
@<TRIPOS>MOLECULE
*****
 30 33 0 0 0
SMALL
GASTEIGER

@<TRIPOS>ATOM
      1 O         143.3563  142.5634  167.1284 O.3     1  UNL1       -0.3793
      2 C         142.3597  142.6662  166.0121 C.3     1  UNL1        0.1422
      3 H         144.2512  142.6871  166.7754 H       1  UNL1        0.2108
      4 C         142.8276  142.9248  164.6105 C.ar    1  UNL1        0.0226
      5 C         143.1499  144.3231  164.1734 C.ar    1  UNL1        0.0012
      6 C         143.6178  144.5817  162.7719 C.ar    1  UNL1        0.0204
      7 C         143.7633  143.4421  161.8076 C.ar    1  UNL1        0.0988
      8 N         143.4410  142.0438  162.2447 N.ar    1  UNL1       -0.2441
      9 C         142.9731  141.7852  163.6461 C.ar    1  UNL1        0.0796
     10 C         142.6508  140.3870  164.0832 C.ar    1  UNL1        0.0191
     11 C         143.4507  139.7391  165.1743 C.ar    1  UNL1        0.0129
     12 C         143.1283  138.3409  165.6114 C.ar    1  UNL1        0.0586
     13 CL        143.9282  137.6930  166.7026 Cl      1  UNL1       -0.0822
     14 C         142.0062  137.5905  164.9575 C.ar    1  UNL1        0.0228
     15 C         141.2064  138.2384  163.8664 C.ar    1  UNL1        0.0586
     16 CL        140.0842  137.4880  163.2124 Cl      1  UNL1       -0.0822
     17 C         141.5287  139.6366  163.4293 C.ar    1  UNL1        0.0129
     18 C         140.8954  142.5105  166.2972 C.3     1  UNL1        0.0787
     19 C         140.4439  141.9031  167.5923 C.ar    1  UNL1        0.0035
     20 C         140.3283  142.7562  168.8207 C.ar    1  UNL1       -0.0007
     21 C         139.8768  142.1489  170.1158 C.ar    1  UNL1        0.0204
     22 C         139.5409  140.6884  170.1825 C.ar    1  UNL1        0.0989
     23 N         139.6565  139.8354  168.9541 N.ar    1  UNL1       -0.2426
     24 C         140.1080  140.4428  167.6590 C.ar    1  UNL1        0.0950
     25 C         139.8824  142.9621  165.2872 C.ar    1  UNL1        0.0035
     26 C         139.1177  141.9494  164.4874 C.ar    1  UNL1       -0.0007
     27 C         138.1048  142.4009  163.4775 C.ar    1  UNL1        0.0204
     28 C         137.8566  143.8652  163.2673 C.ar    1  UNL1        0.0989
     29 N         138.6213  144.8779  164.0670 N.ar    1  UNL1       -0.2426
     30 C         139.6342  144.4264  165.0770 C.ar    1  UNL1        0.0950
@<TRIPOS>BOND
     1     2     1    1
     2     2     4    1
     3     4     5   ar
     4     5     6   ar
     5     6     7   ar
     6     7     8   ar
     7     8     9   ar
     8     9    10    1
     9    10    11   ar
    10    11    12   ar
    11    12    13    1
    12    12    14   ar
    13    14    15   ar
    14    15    16    1
    15    15    17   ar
    16     2    18    1
    17    18    19    1
    18    19    20   ar
    19    20    21   ar
    20    21    22   ar
    21    22    23   ar
    22    23    24   ar
    23    18    25    1
    24    25    26   ar
    25    26    27   ar
    26    27    28   ar
    27    28    29   ar
    28    29    30   ar
    29     9     4   ar
    30    17    10   ar
    31    24    19   ar
    32    30    25   ar
    33     1     3    1
@<TRIPOS>MOLECULE
*****
 30 33 0 0 0
SMALL
GASTEIGER

@<TRIPOS>ATOM
      1 O         143.3551  142.5527  167.1400 O.3     1  UNL1       -0.3793
      2 C         142.3706  142.6563  166.0130 C.3     1  UNL1        0.1422
      3 H         144.2541  142.6727  166.7960 H       1  UNL1        0.2108
      4 C         142.8539  142.9103  164.6159 C.ar    1  UNL1        0.0226
      5 C         143.1863  144.3064  164.1795 C.ar    1  UNL1        0.0012
      6 C         143.6696  144.5605  162.7824 C.ar    1  UNL1        0.0204
      7 C         143.8205  143.4185  161.8217 C.ar    1  UNL1        0.0988
      8 N         143.4881  142.0224  162.2581 N.ar    1  UNL1       -0.2441
      9 C         143.0048  141.7683  163.6552 C.ar    1  UNL1        0.0796
     10 C         142.6725  140.3722  164.0916 C.ar    1  UNL1        0.0191
     11 C         143.4632  139.7206  165.1870 C.ar    1  UNL1        0.0129
     12 C         143.1308  138.3245  165.6234 C.ar    1  UNL1        0.0586
     13 CL        143.9216  137.6728  166.7189 Cl      1  UNL1       -0.0822
     14 C         142.0077  137.5800  164.9643 C.ar    1  UNL1        0.0228
     15 C         141.2170  138.2316  163.8688 C.ar    1  UNL1        0.0586
     16 CL        140.0939  137.4872  163.2097 Cl      1  UNL1       -0.0822
     17 C         141.5494  139.6277  163.4325 C.ar    1  UNL1        0.0129
     18 C         140.9028  142.5059  166.2832 C.3     1  UNL1        0.0787
     19 C         139.9019  142.9643  165.2644 C.ar    1  UNL1        0.0035
     20 C         139.1673  141.9580  164.4290 C.ar    1  UNL1       -0.0007
     21 C         138.1663  142.4165  163.4103 C.ar    1  UNL1        0.0204
     22 C         137.8999  143.8813  163.2269 C.ar    1  UNL1        0.0989
     23 N         138.6345  144.8875  164.0623 N.ar    1  UNL1       -0.2426
     24 C         139.6355  144.4290  165.0810 C.ar    1  UNL1        0.0950
     25 C         140.4360  141.8969  167.5721 C.ar    1  UNL1        0.0035
     26 C         140.3314  142.7426  168.8066 C.ar    1  UNL1       -0.0007
     27 C         139.8645  142.1338  170.0955 C.ar    1  UNL1        0.0204
     28 C         139.5023  140.6792  170.1499 C.ar    1  UNL1        0.0989
     29 N         139.6070  139.8335  168.9155 N.ar    1  UNL1       -0.2426
     30 C         140.0738  140.4424  167.6266 C.ar    1  UNL1        0.0950
@<TRIPOS>BOND
     1     2     1    1
     2     2     4    1
     3     4     5   ar
     4     5     6   ar
     5     6     7   ar
     6     7     8   ar
     7     8     9   ar
     8     9    10    1
     9    10    11   ar
    10    11    12   ar
    11    12    13    1
    12    12    14   ar
    13    14    15   ar
    14    15    16    1
    15    15    17   ar
    16     2    18    1
    17    18    19    1
    18    19    20   ar
    19    20    21   ar
    20    21    22   ar
    21    22    23   ar
    22    23    24   ar
    23    18    25    1
    24    25    26   ar
    25    26    27   ar
    26    27    28   ar
    27    28    29   ar
    28    29    30   ar
    29     9     4   ar
    30    17    10   ar
    31    24    19   ar
    32    30    25   ar
    33     1     3    1
@<TRIPOS>MOLECULE
*****
 30 33 0 0 0
SMALL
GASTEIGER

@<TRIPOS>ATOM
      1 O         141.7849  139.4411  165.7282 O.3     1  UNL1       -0.3793
      2 C         142.0514  140.8695  165.3559 C.3     1  UNL1        0.1422
      3 H         142.3494  138.8578  165.1973 H       1  UNL1        0.2108
      4 C         143.0682  141.1924  164.3014 C.ar    1  UNL1        0.0226
      5 C         144.4710  141.5479  164.6961 C.ar    1  UNL1        0.0012
      6 C         145.4878  141.8709  163.6417 C.ar    1  UNL1        0.0204
      7 C         145.1019  141.8383  162.1927 C.ar    1  UNL1        0.0988
      8 N         143.6991  141.4828  161.7979 N.ar    1  UNL1       -0.2441
      9 C         142.6823  141.1598  162.8523 C.ar    1  UNL1        0.0796
     10 C         141.2795  140.8043  162.4576 C.ar    1  UNL1        0.0191
     11 C         140.7404  139.4366  162.7551 C.ar    1  UNL1        0.0129
     12 C         139.3376  139.0811  162.3604 C.ar    1  UNL1        0.0586
     13 CL        138.7986  137.7132  162.6579 Cl      1  UNL1       -0.0822
     14 C         138.4739  140.0933  161.6681 C.ar    1  UNL1        0.0228
     15 C         139.0130  141.4611  161.3706 C.ar    1  UNL1        0.0586
     16 CL        138.1492  142.4734  160.6783 Cl      1  UNL1       -0.0822
     17 C         140.4158  141.8166  161.7653 C.ar    1  UNL1        0.0129
     18 C         141.3012  141.9749  166.0379 C.3     1  UNL1        0.0787
     19 C         140.1976  142.6893  165.3156 C.ar    1  UNL1        0.0035
     20 C         138.8581  142.0334  165.1559 C.ar    1  UNL1       -0.0007
     21 C         137.7545  142.7478  164.4336 C.ar    1  UNL1        0.0204
     22 C         137.9905  144.1181  163.8709 C.ar    1  UNL1        0.0989
     23 N         139.3300  144.7740  164.0306 N.ar    1  UNL1       -0.2426
     24 C         140.4336  144.0596  164.7529 C.ar    1  UNL1        0.0950
     25 C         141.6545  142.3659  167.4423 C.ar    1  UNL1        0.0035
     26 C         140.5967  142.9038  168.3597 C.ar    1  UNL1       -0.0007
     27 C         140.9499  143.2948  169.7641 C.ar    1  UNL1        0.0204
     28 C         142.3610  143.1479  170.2510 C.ar    1  UNL1        0.0989
     29 N         143.4189  142.6101  169.3336 N.ar    1  UNL1       -0.2426
     30 C         143.0656  142.2190  167.9293 C.ar    1  UNL1        0.0950
@<TRIPOS>BOND
     1     2     1    1
     2     2     4    1
     3     4     5   ar
     4     5     6   ar
     5     6     7   ar
     6     7     8   ar
     7     8     9   ar
     8     9    10    1
     9    10    11   ar
    10    11    12   ar
    11    12    13    1
    12    12    14   ar
    13    14    15   ar
    14    15    16    1
    15    15    17   ar
    16     2    18    1
    17    18    19    1
    18    19    20   ar
    19    20    21   ar
    20    21    22   ar
    21    22    23   ar
    22    23    24   ar
    23    18    25    1
    24    25    26   ar
    25    26    27   ar
    26    27    28   ar
    27    28    29   ar
    28    29    30   ar
    29     9     4   ar
    30    17    10   ar
    31    24    19   ar
    32    30    25   ar
    33     1     3    1
@<TRIPOS>MOLECULE
*****
 30 33 0 0 0
SMALL
GASTEIGER

@<TRIPOS>ATOM
      1 O         141.6582  139.4170  165.7447 O.3     1  UNL1       -0.3793
      2 C         141.9725  140.8349  165.3693 C.3     1  UNL1        0.1422
      3 H         142.2089  138.8142  165.2211 H       1  UNL1        0.2108
      4 C         143.0082  141.1216  164.3227 C.ar    1  UNL1        0.0226
      5 C         144.4169  141.4391  164.7287 C.ar    1  UNL1        0.0012
      6 C         145.4525  141.7259  163.6823 C.ar    1  UNL1        0.0204
      7 C         145.0795  141.6950  162.2297 C.ar    1  UNL1        0.0988
      8 N         143.6709  141.3775  161.8237 N.ar    1  UNL1       -0.2441
      9 C         142.6352  141.0908  162.8702 C.ar    1  UNL1        0.0796
     10 C         141.2266  140.7732  162.4641 C.ar    1  UNL1        0.0191
     11 C         140.6479  139.4211  162.7585 C.ar    1  UNL1        0.0129
     12 C         139.2392  139.1035  162.3525 C.ar    1  UNL1        0.0586
     13 CL        138.6605  137.7513  162.6469 Cl      1  UNL1       -0.0822
     14 C         138.4093  140.1381  161.6520 C.ar    1  UNL1        0.0228
     15 C         138.9879  141.4903  161.3576 C.ar    1  UNL1        0.0586
     16 CL        138.1580  142.5250  160.6572 Cl      1  UNL1       -0.0822
     17 C         140.3966  141.8078  161.7637 C.ar    1  UNL1        0.0129
     18 C         141.2512  141.9659  166.0403 C.3     1  UNL1        0.0787
     19 C         141.6194  142.3659  167.4383 C.ar    1  UNL1        0.0035
     20 C         140.5720  142.9133  168.3623 C.ar    1  UNL1       -0.0007
     21 C         140.9402  143.3133  169.7603 C.ar    1  UNL1        0.0204
     22 C         142.3557  143.1659  170.2344 C.ar    1  UNL1        0.0989
     23 N         143.4030  142.6186  169.3104 N.ar    1  UNL1       -0.2426
     24 C         143.0348  142.2186  167.9124 C.ar    1  UNL1        0.0950
     25 C         140.1617  142.6971  165.3133 C.ar    1  UNL1        0.0035
     26 C         138.8187  142.0541  165.1320 C.ar    1  UNL1       -0.0007
     27 C         137.7292  142.7851  164.4051 C.ar    1  UNL1        0.0204
     28 C         137.9827  144.1592  163.8595 C.ar    1  UNL1        0.0989
     29 N         139.3257  144.8022  164.0409 N.ar    1  UNL1       -0.2426
     30 C         140.4152  144.0711  164.7678 C.ar    1  UNL1        0.0950
@<TRIPOS>BOND
     1     2     1    1
     2     2     4    1
     3     4     5   ar
     4     5     6   ar
     5     6     7   ar
     6     7     8   ar
     7     8     9   ar
     8     9    10    1
     9    10    11   ar
    10    11    12   ar
    11    12    13    1
    12    12    14   ar
    13    14    15   ar
    14    15    16    1
    15    15    17   ar
    16     2    18    1
    17    18    19    1
    18    19    20   ar
    19    20    21   ar
    20    21    22   ar
    21    22    23   ar
    22    23    24   ar
    23    18    25    1
    24    25    26   ar
    25    26    27   ar
    26    27    28   ar
    27    28    29   ar
    28    29    30   ar
    29     9     4   ar
    30    17    10   ar
    31    24    19   ar
    32    30    25   ar
    33     1     3    1
@<TRIPOS>MOLECULE
*****
 30 33 0 0 0
SMALL
GASTEIGER

@<TRIPOS>ATOM
      1 O         138.5214  142.6619  164.9913 O.3     1  UNL1       -0.3793
      2 C         139.4649  141.6969  165.6459 C.3     1  UNL1        0.1422
      3 H         137.8174  142.1701  164.5403 H       1  UNL1        0.2108
      4 C         139.2256  140.2204  165.5330 C.ar    1  UNL1        0.0226
      5 C         138.2676  139.5423  166.4670 C.ar    1  UNL1        0.0012
      6 C         138.0283  138.0659  166.3541 C.ar    1  UNL1        0.0204
      7 C         138.7469  137.2675  165.3071 C.ar    1  UNL1        0.0988
      8 N         139.7049  137.9457  164.3731 N.ar    1  UNL1       -0.2441
      9 C         139.9442  139.4221  164.4860 C.ar    1  UNL1        0.0796
     10 C         140.9022  140.1002  163.5519 C.ar    1  UNL1        0.0191
     11 C         140.3817  140.9400  162.4234 C.ar    1  UNL1        0.0129
     12 C         141.3397  141.6181  161.4893 C.ar    1  UNL1        0.0586
     13 CL        140.8191  142.4580  160.3607 Cl      1  UNL1       -0.0822
     14 C         142.8182  141.4564  161.6839 C.ar    1  UNL1        0.0228
     15 C         143.3387  140.6166  162.8124 C.ar    1  UNL1        0.0586
     16 CL        144.8172  140.4549  163.0070 Cl      1  UNL1       -0.0822
     17 C         142.3807  139.9385  163.7465 C.ar    1  UNL1        0.0129
     18 C         140.6478  142.2084  166.4135 C.3     1  UNL1        0.0787
     19 C         141.7945  142.8465  165.6868 C.ar    1  UNL1        0.0035
     20 C         143.2044  142.5557  166.1083 C.ar    1  UNL1       -0.0007
     21 C         144.3511  143.1938  165.3816 C.ar    1  UNL1        0.0204
     22 C         144.0878  144.1226  164.2336 C.ar    1  UNL1        0.0989
     23 N         142.6779  144.4134  163.8122 N.ar    1  UNL1       -0.2426
     24 C         141.5312  143.7753  164.5388 C.ar    1  UNL1        0.0950
     25 C         140.6840  142.0819  167.9077 C.ar    1  UNL1        0.0035
     26 C         140.3196  143.2548  168.7688 C.ar    1  UNL1       -0.0007
     27 C         140.3558  143.1283  170.2630 C.ar    1  UNL1        0.0204
     28 C         140.7565  141.8288  170.8961 C.ar    1  UNL1        0.0989
     29 N         141.1209  140.6559  170.0351 N.ar    1  UNL1       -0.2426
     30 C         141.0847  140.7824  168.5409 C.ar    1  UNL1        0.0950
@<TRIPOS>BOND
     1     2     1    1
     2     2     4    1
     3     4     5   ar
     4     5     6   ar
     5     6     7   ar
     6     7     8   ar
     7     8     9   ar
     8     9    10    1
     9    10    11   ar
    10    11    12   ar
    11    12    13    1
    12    12    14   ar
    13    14    15   ar
    14    15    16    1
    15    15    17   ar
    16     2    18    1
    17    18    19    1
    18    19    20   ar
    19    20    21   ar
    20    21    22   ar
    21    22    23   ar
    22    23    24   ar
    23    18    25    1
    24    25    26   ar
    25    26    27   ar
    26    27    28   ar
    27    28    29   ar
    28    29    30   ar
    29     9     4   ar
    30    17    10   ar
    31    24    19   ar
    32    30    25   ar
    33     1     3    1
