@<TRIPOS>MOLECULE
*****
 34 38 0 0 0
SMALL
GASTEIGER

@<TRIPOS>ATOM
      1 N         143.0234  138.9252  163.5168 N.3     1  UNL1       -0.2726
      2 C         144.2022  139.2634  162.6530 C.3     1  UNL1        0.0721
      3 C         144.8061  140.5353  163.1702 C.3     1  UNL1        0.0190
      4 C         144.0007  140.9832  164.3536 C.3     1  UNL1        0.0202
      5 C         144.8083  142.2153  164.6357 C.3     1  UNL1        0.0062
      6 C         143.6296  141.8772  165.4996 C.3     1  UNL1        0.0259
      7 C         142.8989  139.9881  164.5679 C.3     1  UNL1        0.0724
      8 C         142.7348  142.1981  166.6599 C.ar    1  UNL1        0.0050
      9 C         143.2879  142.2043  168.0542 C.ar    1  UNL1       -0.0021
     10 C         142.3931  142.5252  169.2145 C.ar    1  UNL1        0.0037
     11 C         140.9453  142.8399  168.9805 C.ar    1  UNL1        0.0736
     12 C         140.3922  142.8337  167.5862 C.ar    1  UNL1        0.0332
     13 C         141.2870  142.5128  166.4259 C.ar    1  UNL1        0.1361
     14 F         140.7340  142.5066  165.0316 F       1  UNL1       -0.2045
     15 C         140.0505  143.1608  170.1408 C.3     1  UNL1        0.4186
     16 F         139.1556  143.4817  171.3012 F       1  UNL1       -0.1659
     17 F         139.8679  141.6956  170.4052 F       1  UNL1       -0.1659
     18 F         140.2331  144.6259  169.8764 F       1  UNL1       -0.1659
     19 C         142.1266  137.7334  163.3576 C.3     1  UNL1        0.0730
     20 C         141.0405  137.4730  164.3588 C.3     1  UNL1        0.0294
     21 C         139.7202  138.1736  164.2325 C.3     1  UNL1        0.0666
     22 S         139.2645  138.6798  162.8961 S.3     1  UNL1       -0.0756
     23 C         138.7726  142.4794  162.2741 C.ar    1  UNL1        0.2029
     24 N         137.4131  142.0890  162.7736 N.ar    1  UNL1       -0.1250
     25 N         137.4320  140.6181  163.0674 N.ar    1  UNL1       -0.1220
     26 C         138.8031  140.0995  162.7495 C.ar    1  UNL1        0.1933
     27 N         139.6316  141.2497  162.2592 N.ar    1  UNL1       -0.2860
     28 C         141.0671  141.1823  161.8294 C.3     1  UNL1        0.1341
     29 C         139.1049  145.0557  164.2494 C.3     1  UNL1        0.0556
     30 C         139.3510  145.0416  162.7698 C.ar    1  UNL1        0.1001
     31 N         139.7930  146.2091  161.9383 N.ar    1  UNL1       -0.2085
     32 C         139.9135  145.7466  160.5165 C.ar    1  UNL1        0.2849
     33 O         139.5459  144.2931  160.4693 O.2     1  UNL1       -0.4283
     34 C         139.1982  143.8574  161.8618 C.ar    1  UNL1        0.1964
@<TRIPOS>BOND
     1    29    30    1
     2    30    31   ar
     3    31    32   ar
     4    32    33   ar
     5    33    34   ar
     6    34    23    1
     7    23    24   ar
     8    24    25   ar
     9    25    26   ar
    10    26    22    1
    11    22    21    1
    12    21    20    1
    13    20    19    1
    14    19     1    1
    15     1     2    1
    16     2     3    1
    17     4     3    1
    18     4     5    1
    19     5     6    1
    20     6     8    1
    21     8     9   ar
    22     9    10   ar
    23    10    11   ar
    24    11    15    1
    25    15    16    1
    26    15    17    1
    27    15    18    1
    28    11    12   ar
    29    12    13   ar
    30    13    14    1
    31     4     7    1
    32    26    27   ar
    33    27    28    1
    34    34    30   ar
    35    27    23   ar
    36     7     1    1
    37     6     4    1
    38    13     8   ar
@<TRIPOS>MOLECULE
*****
 34 38 0 0 0
SMALL
GASTEIGER

@<TRIPOS>ATOM
      1 N         138.0615  140.4047  163.2492 N.3     1  UNL1       -0.2726
      2 C         137.9933  139.0620  162.5839 C.3     1  UNL1        0.0721
      3 C         138.9335  138.1404  163.3026 C.3     1  UNL1        0.0190
      4 C         139.5828  138.9134  164.4121 C.3     1  UNL1        0.0202
      5 C         140.4240  137.7807  164.9211 C.3     1  UNL1        0.0062
      6 C         140.4922  139.1233  165.5864 C.3     1  UNL1        0.0259
      7 C         139.0439  140.3129  164.3790 C.3     1  UNL1        0.0724
      8 C         141.0566  140.0197  166.6484 C.ar    1  UNL1        0.0050
      9 C         142.4319  140.5972  166.4894 C.ar    1  UNL1       -0.0021
     10 C         142.9963  141.4936  167.5514 C.ar    1  UNL1        0.0037
     11 C         142.1854  141.8125  168.7724 C.ar    1  UNL1        0.0736
     12 C         140.8102  141.2350  168.9314 C.ar    1  UNL1        0.0332
     13 C         140.2458  140.3386  167.8694 C.ar    1  UNL1        0.1361
     14 F         138.8707  139.7611  168.0284 F       1  UNL1       -0.2045
     15 C         142.7498  142.7089  169.8344 C.3     1  UNL1        0.4186
     16 F         143.3143  143.6053  170.8965 F       1  UNL1       -0.1659
     17 F         143.9940  141.8721  169.8795 F       1  UNL1       -0.1659
     18 F         141.5057  143.5456  169.7894 F       1  UNL1       -0.1659
     19 C         137.2839  141.6250  162.8539 C.3     1  UNL1        0.0730
     20 C         137.9770  142.7685  162.1743 C.3     1  UNL1        0.0294
     21 C         137.9771  144.1285  162.8071 C.3     1  UNL1        0.0666
     22 S         139.1497  145.0442  162.6168 S.3     1  UNL1       -0.0756
     23 C         142.5911  143.2734  162.3221 C.ar    1  UNL1        0.2029
     24 N         142.5006  143.9549  160.9889 N.ar    1  UNL1       -0.1250
     25 N         141.2005  144.7011  160.9370 N.ar    1  UNL1       -0.1220
     26 C         140.4874  144.4810  162.2382 C.ar    1  UNL1        0.1933
     27 N         141.3468  143.5986  163.0942 N.ar    1  UNL1       -0.2860
     28 C         141.0194  143.1246  164.4792 C.3     1  UNL1        0.1341
     29 C         142.5672  140.0196  162.5705 C.3     1  UNL1        0.0556
     30 C         143.7155  140.9216  162.9136 C.ar    1  UNL1        0.1001
     31 N         145.0544  140.4864  163.4311 N.ar    1  UNL1       -0.2085
     32 C         145.8929  141.7130  163.6368 C.ar    1  UNL1        0.2849
     33 O         145.0722  142.9064  163.2464 O.2     1  UNL1       -0.4283
     34 C         143.7265  142.4172  162.7995 C.ar    1  UNL1        0.1964
@<TRIPOS>BOND
     1    29    30    1
     2    30    31   ar
     3    31    32   ar
     4    32    33   ar
     5    33    34   ar
     6    34    23    1
     7    23    24   ar
     8    24    25   ar
     9    25    26   ar
    10    26    22    1
    11    22    21    1
    12    21    20    1
    13    20    19    1
    14    19     1    1
    15     1     2    1
    16     2     3    1
    17     4     3    1
    18     4     5    1
    19     5     6    1
    20     6     8    1
    21     8     9   ar
    22     9    10   ar
    23    10    11   ar
    24    11    15    1
    25    15    16    1
    26    15    17    1
    27    15    18    1
    28    11    12   ar
    29    12    13   ar
    30    13    14    1
    31     4     7    1
    32    26    27   ar
    33    27    28    1
    34    34    30   ar
    35    27    23   ar
    36     7     1    1
    37     6     4    1
    38    13     8   ar
@<TRIPOS>MOLECULE
*****
 34 38 0 0 0
SMALL
GASTEIGER

@<TRIPOS>ATOM
      1 N         143.3364  143.4312  163.1738 N.3     1  UNL1       -0.2726
      2 C         143.2144  144.9222  163.0641 C.3     1  UNL1        0.0721
      3 C         141.9177  145.3290  163.6989 C.3     1  UNL1        0.0190
      4 C         141.2383  144.0896  164.2009 C.3     1  UNL1        0.0202
      5 C         140.0309  144.7860  164.7549 C.3     1  UNL1        0.0062
      6 C         140.1528  143.2950  164.8646 C.3     1  UNL1        0.0259
      7 C         142.1151  142.9166  163.8763 C.3     1  UNL1        0.0724
      8 C         139.5966  141.9755  165.3111 C.ar    1  UNL1        0.0050
      9 C         138.6616  141.2149  164.4182 C.ar    1  UNL1       -0.0021
     10 C         138.1054  139.8954  164.8647 C.ar    1  UNL1        0.0037
     11 C         138.4840  139.3365  166.2042 C.ar    1  UNL1        0.0736
     12 C         139.4190  140.0971  167.0972 C.ar    1  UNL1        0.0332
     13 C         139.9752  141.4166  166.6506 C.ar    1  UNL1        0.1361
     14 F         140.9101  142.1772  167.5435 F       1  UNL1       -0.2045
     15 C         137.9278  138.0169  166.6507 C.3     1  UNL1        0.4186
     16 F         137.3715  136.6973  167.0972 F       1  UNL1       -0.1659
     17 F         137.3437  138.6744  167.8658 F       1  UNL1       -0.1659
     18 F         138.5119  137.3595  165.4356 F       1  UNL1       -0.1659
     19 C         144.4791  142.6005  162.6694 C.3     1  UNL1        0.0730
     20 C         145.4350  141.9721  163.6396 C.3     1  UNL1        0.0294
     21 C         145.0735  140.6867  164.3230 C.3     1  UNL1        0.0666
     22 S         144.8504  139.4438  163.5134 S.3     1  UNL1       -0.0756
     23 C         141.4539  139.1696  161.6547 C.ar    1  UNL1        0.2029
     24 N         142.4009  139.3424  160.5043 N.ar    1  UNL1       -0.1250
     25 N         143.7884  139.4662  161.0605 N.ar    1  UNL1       -0.1220
     26 C         143.6991  139.3698  162.5548 C.ar    1  UNL1        0.1933
     27 N         142.2563  139.1865  162.9220 N.ar    1  UNL1       -0.2860
     28 C         141.7116  139.0450  164.3124 C.3     1  UNL1        0.1341
     29 C         139.3596  141.3769  160.4754 C.3     1  UNL1        0.0556
     30 C         139.0033  140.0227  161.0133 C.ar    1  UNL1        0.1001
     31 N         137.6218  139.4454  161.1035 N.ar    1  UNL1       -0.2085
     32 C         137.7307  138.0740  161.7013 C.ar    1  UNL1        0.2849
     33 O         139.1795  137.8037  161.9806 O.2     1  UNL1       -0.4283
     34 C         139.9660  139.0081  161.5553 C.ar    1  UNL1        0.1964
@<TRIPOS>BOND
     1    29    30    1
     2    30    31   ar
     3    31    32   ar
     4    32    33   ar
     5    33    34   ar
     6    34    23    1
     7    23    24   ar
     8    24    25   ar
     9    25    26   ar
    10    26    22    1
    11    22    21    1
    12    21    20    1
    13    20    19    1
    14    19     1    1
    15     1     2    1
    16     2     3    1
    17     4     3    1
    18     4     5    1
    19     5     6    1
    20     6     8    1
    21     8     9   ar
    22     9    10   ar
    23    10    11   ar
    24    11    15    1
    25    15    16    1
    26    15    17    1
    27    15    18    1
    28    11    12   ar
    29    12    13   ar
    30    13    14    1
    31     4     7    1
    32    26    27   ar
    33    27    28    1
    34    34    30   ar
    35    27    23   ar
    36     7     1    1
    37     6     4    1
    38    13     8   ar
@<TRIPOS>MOLECULE
*****
 34 38 0 0 0
SMALL
GASTEIGER

@<TRIPOS>ATOM
      1 N         138.0684  140.1987  162.9831 N.3     1  UNL1       -0.2726
      2 C         138.0339  138.8998  162.2337 C.3     1  UNL1        0.0721
      3 C         138.8742  137.9094  162.9840 C.3     1  UNL1        0.0190
      4 C         139.4280  138.5962  164.1971 C.3     1  UNL1        0.0202
      5 C         140.1856  137.4103  164.7165 C.3     1  UNL1        0.0062
      6 C         140.2201  138.7093  165.4659 C.3     1  UNL1        0.0259
      7 C         138.9300  140.0111  164.1965 C.3     1  UNL1        0.0724
      8 C         140.6973  139.5245  166.6311 C.ar    1  UNL1        0.0050
      9 C         139.7190  140.3298  167.4338 C.ar    1  UNL1       -0.0021
     10 C         140.1962  141.1451  168.5990 C.ar    1  UNL1        0.0037
     11 C         141.6518  141.1550  168.9614 C.ar    1  UNL1        0.0736
     12 C         142.6301  140.3497  168.1586 C.ar    1  UNL1        0.0332
     13 C         142.1528  139.5345  166.9934 C.ar    1  UNL1        0.1361
     14 F         143.1311  138.7292  166.1907 F       1  UNL1       -0.2045
     15 C         142.1290  141.9703  170.1265 C.3     1  UNL1        0.4186
     16 F         142.6062  142.7855  171.2917 F       1  UNL1       -0.1659
     17 F         142.7145  142.9776  169.1819 F       1  UNL1       -0.1659
     18 F         141.5435  140.9629  171.0712 F       1  UNL1       -0.1659
     19 C         137.3648  141.4633  162.5883 C.3     1  UNL1        0.0730
     20 C         137.3777  142.6474  163.5089 C.3     1  UNL1        0.0294
     21 C         137.7155  144.0083  162.9760 C.3     1  UNL1        0.0666
     22 S         139.0836  144.5821  163.1974 S.3     1  UNL1       -0.0756
     23 C         141.9511  142.1068  164.0436 C.ar    1  UNL1        0.2029
     24 N         141.7110  142.7408  165.3817 N.ar    1  UNL1       -0.1250
     25 N         140.6076  143.7452  165.2276 N.ar    1  UNL1       -0.1220
     26 C         140.1658  143.7320  163.7942 C.ar    1  UNL1        0.1933
     27 N         140.9960  142.7195  163.0625 N.ar    1  UNL1       -0.2860
     28 C         140.8899  142.3793  161.6054 C.3     1  UNL1        0.1341
     29 C         145.1741  142.3553  164.4907 C.3     1  UNL1        0.0556
     30 C         144.4491  141.1607  163.9455 C.ar    1  UNL1        0.1001
     31 N         145.0783  139.8705  163.5100 N.ar    1  UNL1       -0.2085
     32 C         143.9857  138.9589  163.0354 C.ar    1  UNL1        0.2849
     33 O         142.6812  139.6857  163.1775 O.2     1  UNL1       -0.4283
     34 C         142.9677  141.0465  163.7400 C.ar    1  UNL1        0.1964
@<TRIPOS>BOND
     1    29    30    1
     2    30    31   ar
     3    31    32   ar
     4    32    33   ar
     5    33    34   ar
     6    34    23    1
     7    23    24   ar
     8    24    25   ar
     9    25    26   ar
    10    26    22    1
    11    22    21    1
    12    21    20    1
    13    20    19    1
    14    19     1    1
    15     1     2    1
    16     2     3    1
    17     4     3    1
    18     4     5    1
    19     5     6    1
    20     6     8    1
    21     8     9   ar
    22     9    10   ar
    23    10    11   ar
    24    11    15    1
    25    15    16    1
    26    15    17    1
    27    15    18    1
    28    11    12   ar
    29    12    13   ar
    30    13    14    1
    31     4     7    1
    32    26    27   ar
    33    27    28    1
    34    34    30   ar
    35    27    23   ar
    36     7     1    1
    37     6     4    1
    38    13     8   ar
@<TRIPOS>MOLECULE
*****
 34 38 0 0 0
SMALL
GASTEIGER

@<TRIPOS>ATOM
      1 N         143.5947  143.4746  163.6519 N.3     1  UNL1       -0.2726
      2 C         143.4230  144.9443  163.4058 C.3     1  UNL1        0.0721
      3 C         142.0198  145.3165  163.7830 C.3     1  UNL1        0.0190
      4 C         141.3242  144.0770  164.2623 C.3     1  UNL1        0.0202
      5 C         140.0089  144.7373  164.5520 C.3     1  UNL1        0.0062
      6 C         140.1806  143.2676  164.7981 C.3     1  UNL1        0.0259
      7 C         142.2976  142.9386  164.1812 C.3     1  UNL1        0.0724
      8 C         139.6194  141.9518  165.2495 C.ar    1  UNL1        0.0050
      9 C         139.9989  141.3948  166.5896 C.ar    1  UNL1       -0.0021
     10 C         139.4378  140.0790  167.0410 C.ar    1  UNL1        0.0037
     11 C         138.4972  139.3202  166.1524 C.ar    1  UNL1        0.0736
     12 C         138.1178  139.8773  164.8123 C.ar    1  UNL1        0.0332
     13 C         138.6789  141.1931  164.3609 C.ar    1  UNL1        0.1361
     14 F         138.2995  141.7501  163.0209 F       1  UNL1       -0.2045
     15 C         137.9361  138.0044  166.6038 C.3     1  UNL1        0.4186
     16 F         137.3749  136.6886  167.0553 F       1  UNL1       -0.1659
     17 F         138.5629  137.3307  165.4192 F       1  UNL1       -0.1659
     18 F         137.3093  138.6781  167.7884 F       1  UNL1       -0.1659
     19 C         144.8441  142.6803  163.4110 C.3     1  UNL1        0.0730
     20 C         145.1144  141.4446  164.2172 C.3     1  UNL1        0.0294
     21 C         144.7434  140.0973  163.6721 C.3     1  UNL1        0.0666
     22 S         143.5201  139.3936  164.1802 S.3     1  UNL1       -0.0756
     23 C         141.1630  138.4729  161.2371 C.ar    1  UNL1        0.2029
     24 N         140.8596  137.3699  162.2075 N.ar    1  UNL1       -0.1250
     25 N         141.7056  137.5806  163.4281 N.ar    1  UNL1       -0.1220
     26 C         142.5319  138.8137  163.2121 C.ar    1  UNL1        0.1933
     27 N         142.1966  139.3652  161.8581 N.ar    1  UNL1       -0.2860
     28 C         142.7905  140.5933  161.2344 C.3     1  UNL1        0.1341
     29 C         138.1202  139.4916  160.6425 C.3     1  UNL1        0.0556
     30 C         139.1433  139.1202  159.6102 C.ar    1  UNL1        0.1001
     31 N         138.9474  139.1519  158.1234 N.ar    1  UNL1       -0.2085
     32 C         140.2249  138.7033  157.4778 C.ar    1  UNL1        0.2849
     33 O         141.2103  138.3943  158.5657 O.2     1  UNL1       -0.4283
     34 C         140.5419  138.6520  159.8835 C.ar    1  UNL1        0.1964
@<TRIPOS>BOND
     1    29    30    1
     2    30    31   ar
     3    31    32   ar
     4    32    33   ar
     5    33    34   ar
     6    34    23    1
     7    23    24   ar
     8    24    25   ar
     9    25    26   ar
    10    26    22    1
    11    22    21    1
    12    21    20    1
    13    20    19    1
    14    19     1    1
    15     1     2    1
    16     2     3    1
    17     4     3    1
    18     4     5    1
    19     5     6    1
    20     6     8    1
    21     8     9   ar
    22     9    10   ar
    23    10    11   ar
    24    11    15    1
    25    15    16    1
    26    15    17    1
    27    15    18    1
    28    11    12   ar
    29    12    13   ar
    30    13    14    1
    31     4     7    1
    32    26    27   ar
    33    27    28    1
    34    34    30   ar
    35    27    23   ar
    36     7     1    1
    37     6     4    1
    38    13     8   ar
@<TRIPOS>MOLECULE
*****
 34 38 0 0 0
SMALL
GASTEIGER

@<TRIPOS>ATOM
      1 N         143.1346  143.6411  162.4259 N.3     1  UNL1       -0.2726
      2 C         144.3431  143.2942  161.6078 C.3     1  UNL1        0.0721
      3 C         145.0824  142.1974  162.3151 C.3     1  UNL1        0.0190
      4 C         144.3310  141.8664  163.5704 C.3     1  UNL1        0.0202
      5 C         145.2684  140.7918  164.0357 C.3     1  UNL1        0.0062
      6 C         144.0600  141.1387  164.8538 C.3     1  UNL1        0.0259
      7 C         143.1271  142.7586  163.6389 C.3     1  UNL1        0.0724
      8 C         143.2058  140.9188  166.0671 C.ar    1  UNL1        0.0050
      9 C         142.8212  142.0808  166.9342 C.ar    1  UNL1       -0.0021
     10 C         141.9671  141.8609  168.1474 C.ar    1  UNL1        0.0037
     11 C         141.4975  140.4790  168.4936 C.ar    1  UNL1        0.0736
     12 C         141.8821  139.3170  167.6265 C.ar    1  UNL1        0.0332
     13 C         142.7362  139.5369  166.4132 C.ar    1  UNL1        0.1361
     14 F         143.1208  138.3749  165.5462 F       1  UNL1       -0.2045
     15 C         140.6434  140.2592  169.7069 C.3     1  UNL1        0.4186
     16 F         139.7892  140.0392  170.9202 F       1  UNL1       -0.1659
     17 F         139.8228  141.4622  169.3472 F       1  UNL1       -0.1659
     18 F         141.4639  139.0561  170.0665 F       1  UNL1       -0.1659
     19 C         142.1130  144.6868  162.0901 C.3     1  UNL1        0.0730
     20 C         141.1636  145.1736  163.1444 C.3     1  UNL1        0.0294
     21 C         139.7125  145.3652  162.8163 C.3     1  UNL1        0.0666
     22 S         138.7129  144.3122  163.1931 S.3     1  UNL1       -0.0756
     23 C         140.0692  140.7302  163.8222 C.ar    1  UNL1        0.2029
     24 N         139.7347  141.1630  165.2189 N.ar    1  UNL1       -0.1250
     25 N         139.1859  142.5575  165.1533 N.ar    1  UNL1       -0.1220
     26 C         139.1813  142.9865  163.7160 C.ar    1  UNL1        0.1933
     27 N         139.7271  141.8573  162.8933 N.ar    1  UNL1       -0.2860
     28 C         139.9005  141.8553  161.4033 C.3     1  UNL1        0.1341
     29 C         138.9554  137.8033  164.7401 C.3     1  UNL1        0.0556
     30 C         140.1327  138.0580  163.8462 C.ar    1  UNL1        0.1001
     31 N         141.0048  137.0122  163.2172 N.ar    1  UNL1       -0.2085
     32 C         142.0557  137.7111  162.4066 C.ar    1  UNL1        0.2849
     33 O         141.8331  139.1890  162.5345 O.2     1  UNL1       -0.4283
     34 C         140.6446  139.4034  163.4243 C.ar    1  UNL1        0.1964
@<TRIPOS>BOND
     1    29    30    1
     2    30    31   ar
     3    31    32   ar
     4    32    33   ar
     5    33    34   ar
     6    34    23    1
     7    23    24   ar
     8    24    25   ar
     9    25    26   ar
    10    26    22    1
    11    22    21    1
    12    21    20    1
    13    20    19    1
    14    19     1    1
    15     1     2    1
    16     2     3    1
    17     4     3    1
    18     4     5    1
    19     5     6    1
    20     6     8    1
    21     8     9   ar
    22     9    10   ar
    23    10    11   ar
    24    11    15    1
    25    15    16    1
    26    15    17    1
    27    15    18    1
    28    11    12   ar
    29    12    13   ar
    30    13    14    1
    31     4     7    1
    32    26    27   ar
    33    27    28    1
    34    34    30   ar
    35    27    23   ar
    36     7     1    1
    37     6     4    1
    38    13     8   ar
@<TRIPOS>MOLECULE
*****
 34 38 0 0 0
SMALL
GASTEIGER

@<TRIPOS>ATOM
      1 N         144.2931  141.7437  163.4518 N.3     1  UNL1       -0.2726
      2 C         144.9282  140.4822  162.9466 C.3     1  UNL1        0.0721
      3 C         144.6041  139.3812  163.9124 C.3     1  UNL1        0.0190
      4 C         143.7686  139.9622  165.0144 C.3     1  UNL1        0.0202
      5 C         143.6123  138.6839  165.7834 C.3     1  UNL1        0.0062
      6 C         142.9771  139.9454  166.2885 C.3     1  UNL1        0.0259
      7 C         143.5764  141.4223  164.7297 C.3     1  UNL1        0.0724
      8 C         142.1535  140.6640  167.3157 C.ar    1  UNL1        0.0050
      9 C         140.8606  140.0696  167.7901 C.ar    1  UNL1       -0.0021
     10 C         140.0370  140.7882  168.8173 C.ar    1  UNL1        0.0037
     11 C         140.5063  142.1012  169.3702 C.ar    1  UNL1        0.0736
     12 C         141.7992  142.6957  168.8958 C.ar    1  UNL1        0.0332
     13 C         142.6228  141.9771  167.8685 C.ar    1  UNL1        0.1361
     14 F         143.9157  142.5714  167.3942 F       1  UNL1       -0.2045
     15 C         139.6827  142.8199  170.3974 C.3     1  UNL1        0.4186
     16 F         138.8590  143.5385  171.4247 F       1  UNL1       -0.1659
     17 F         140.6153  143.9924  170.3249 F       1  UNL1       -0.1659
     18 F         138.7500  141.6473  170.4698 F       1  UNL1       -0.1659
     19 C         144.3625  143.0902  162.7944 C.3     1  UNL1        0.0730
     20 C         143.7991  144.2941  163.4895 C.3     1  UNL1        0.0294
     21 C         142.7398  145.1191  162.8208 C.3     1  UNL1        0.0666
     22 S         141.3456  145.1407  163.3736 S.3     1  UNL1       -0.0756
     23 C         139.9070  141.6126  164.1145 C.ar    1  UNL1        0.2029
     24 N         139.7001  142.2932  165.4351 N.ar    1  UNL1       -0.1250
     25 N         140.2138  143.6977  165.3183 N.ar    1  UNL1       -0.1220
     26 C         140.7382  143.8851  163.9255 C.ar    1  UNL1        0.1933
     27 N         140.5487  142.5965  163.1815 N.ar    1  UNL1       -0.2860
     28 C         140.9332  142.3372  161.7550 C.3     1  UNL1        0.1341
     29 C         137.5798  140.6739  162.0282 C.3     1  UNL1        0.0556
     30 C         138.4676  139.7653  162.8258 C.ar    1  UNL1        0.1001
     31 N         138.4416  138.2657  162.8046 N.ar    1  UNL1       -0.2085
     32 C         139.4952  137.7703  163.7504 C.ar    1  UNL1        0.2849
     33 O         140.1724  138.9638  164.3562 O.2     1  UNL1       -0.4283
     34 C         139.5373  140.1967  163.7848 C.ar    1  UNL1        0.1964
@<TRIPOS>BOND
     1    29    30    1
     2    30    31   ar
     3    31    32   ar
     4    32    33   ar
     5    33    34   ar
     6    34    23    1
     7    23    24   ar
     8    24    25   ar
     9    25    26   ar
    10    26    22    1
    11    22    21    1
    12    21    20    1
    13    20    19    1
    14    19     1    1
    15     1     2    1
    16     2     3    1
    17     4     3    1
    18     4     5    1
    19     5     6    1
    20     6     8    1
    21     8     9   ar
    22     9    10   ar
    23    10    11   ar
    24    11    15    1
    25    15    16    1
    26    15    17    1
    27    15    18    1
    28    11    12   ar
    29    12    13   ar
    30    13    14    1
    31     4     7    1
    32    26    27   ar
    33    27    28    1
    34    34    30   ar
    35    27    23   ar
    36     7     1    1
    37     6     4    1
    38    13     8   ar
@<TRIPOS>MOLECULE
*****
 34 38 0 0 0
SMALL
GASTEIGER

@<TRIPOS>ATOM
      1 N         138.0624  141.4290  163.4732 N.3     1  UNL1       -0.2726
      2 C         137.5847  142.7377  162.9171 C.3     1  UNL1        0.0721
      3 C         138.1259  143.8351  163.7847 C.3     1  UNL1        0.0190
      4 C         138.9381  143.2047  164.8769 C.3     1  UNL1        0.0202
      5 C         139.3265  144.4901  165.5453 C.3     1  UNL1        0.0062
      6 C         139.8042  143.1815  166.1014 C.3     1  UNL1        0.0259
      7 C         138.8988  141.7176  164.6844 C.3     1  UNL1        0.0724
      8 C         140.5801  142.4125  167.1293 C.ar    1  UNL1        0.0050
      9 C         141.2981  141.1542  166.7405 C.ar    1  UNL1       -0.0021
     10 C         142.0739  140.3852  167.7685 C.ar    1  UNL1        0.0037
     11 C         142.1317  140.8745  169.1852 C.ar    1  UNL1        0.0736
     12 C         141.4137  142.1328  169.5741 C.ar    1  UNL1        0.0332
     13 C         140.6379  142.9018  168.5461 C.ar    1  UNL1        0.1361
     14 F         139.9199  144.1600  168.9349 F       1  UNL1       -0.2045
     15 C         142.9076  140.1055  170.2132 C.3     1  UNL1        0.4186
     16 F         143.6835  139.3365  171.2412 F       1  UNL1       -0.1659
     17 F         141.8689  139.0236  170.1878 F       1  UNL1       -0.1659
     18 F         143.9462  141.1874  170.2386 F       1  UNL1       -0.1659
     19 C         137.7572  140.0702  162.9159 C.3     1  UNL1        0.0730
     20 C         138.6557  138.9112  163.2310 C.3     1  UNL1        0.0294
     21 C         139.1804  138.0461  162.1236 C.3     1  UNL1        0.0666
     22 S         140.6228  138.1348  161.7218 S.3     1  UNL1       -0.0756
     23 C         142.6530  141.1660  163.0469 C.ar    1  UNL1        0.2029
     24 N         143.2178  140.0529  163.8787 N.ar    1  UNL1       -0.1250
     25 N         142.5261  138.7819  163.4836 N.ar    1  UNL1       -0.1220
     26 C         141.5337  139.1095  162.4076 C.ar    1  UNL1        0.1933
     27 N         141.6121  140.5830  162.1377 N.ar    1  UNL1       -0.2860
     28 C         140.7934  141.3404  161.1346 C.3     1  UNL1        0.1341
     29 C         144.7374  142.6672  161.0340 C.3     1  UNL1        0.0556
     30 C         144.0160  143.2988  162.1876 C.ar    1  UNL1        0.1001
     31 N         144.1260  144.7314  162.6184 N.ar    1  UNL1       -0.2085
     32 C         143.2360  144.9268  163.8099 C.ar    1  UNL1        0.2849
     33 O         142.5758  143.6150  164.1154 O.2     1  UNL1       -0.4283
     34 C         143.0579  142.6089  163.1128 C.ar    1  UNL1        0.1964
@<TRIPOS>BOND
     1    29    30    1
     2    30    31   ar
     3    31    32   ar
     4    32    33   ar
     5    33    34   ar
     6    34    23    1
     7    23    24   ar
     8    24    25   ar
     9    25    26   ar
    10    26    22    1
    11    22    21    1
    12    21    20    1
    13    20    19    1
    14    19     1    1
    15     1     2    1
    16     2     3    1
    17     4     3    1
    18     4     5    1
    19     5     6    1
    20     6     8    1
    21     8     9   ar
    22     9    10   ar
    23    10    11   ar
    24    11    15    1
    25    15    16    1
    26    15    17    1
    27    15    18    1
    28    11    12   ar
    29    12    13   ar
    30    13    14    1
    31     4     7    1
    32    26    27   ar
    33    27    28    1
    34    34    30   ar
    35    27    23   ar
    36     7     1    1
    37     6     4    1
    38    13     8   ar
@<TRIPOS>MOLECULE
*****
 34 38 0 0 0
SMALL
GASTEIGER

@<TRIPOS>ATOM
      1 N         143.2251  138.8984  162.9375 N.3     1  UNL1       -0.2726
      2 C         142.5309  137.9844  161.9717 C.3     1  UNL1        0.0721
      3 C         141.2314  137.5591  162.5885 C.3     1  UNL1        0.0190
      4 C         141.1225  138.2102  163.9354 C.3     1  UNL1        0.0202
      5 C         139.7874  137.6230  164.2859 C.3     1  UNL1        0.0062
      6 C         140.4816  138.5370  165.2517 C.3     1  UNL1        0.0259
      7 C         142.3547  139.0379  164.1511 C.3     1  UNL1        0.0724
      8 C         140.5124  139.2534  166.5692 C.ar    1  UNL1        0.0050
      9 C         141.8259  139.6363  167.1841 C.ar    1  UNL1       -0.0021
     10 C         141.8567  140.3527  168.5016 C.ar    1  UNL1        0.0037
     11 C         140.5740  140.6862  169.2042 C.ar    1  UNL1        0.0736
     12 C         139.2606  140.3032  168.5892 C.ar    1  UNL1        0.0332
     13 C         139.2298  139.5868  167.2717 C.ar    1  UNL1        0.1361
     14 F         137.9164  139.2039  166.6568 F       1  UNL1       -0.2045
     15 C         140.6049  141.4026  170.5216 C.3     1  UNL1        0.4186
     16 F         140.6356  142.1190  171.8392 F       1  UNL1       -0.1659
     17 F         141.9731  140.8497  170.7903 F       1  UNL1       -0.1659
     18 F         139.2366  141.9554  170.2530 F       1  UNL1       -0.1659
     19 C         144.5561  139.5573  162.7266 C.3     1  UNL1        0.0730
     20 C         145.1375  140.4326  163.7970 C.3     1  UNL1        0.0294
     21 C         145.5887  141.8242  163.4650 C.3     1  UNL1        0.0666
     22 S         144.5836  142.9322  163.3548 S.3     1  UNL1       -0.0756
     23 C         140.7969  142.1958  163.7836 C.ar    1  UNL1        0.2029
     24 N         141.1878  142.5339  165.1918 N.ar    1  UNL1       -0.1250
     25 N         142.6538  142.8509  165.2026 N.ar    1  UNL1       -0.1220
     26 C         143.1691  142.7087  163.8010 C.ar    1  UNL1        0.1933
     27 N         142.0215  142.3038  162.9240 N.ar    1  UNL1       -0.2860
     28 C         142.0869  142.0514  161.4469 C.3     1  UNL1        0.1341
     29 C         138.0422  143.8346  164.3964 C.3     1  UNL1        0.0556
     30 C         138.1566  142.5696  163.5986 C.ar    1  UNL1        0.1001
     31 N         137.0249  141.8356  162.9424 N.ar    1  UNL1       -0.2085
     32 C         137.5916  140.6288  162.2552 C.ar    1  UNL1        0.2849
     33 O         139.0736  140.6168  162.4867 O.2     1  UNL1       -0.4283
     34 C         139.4228  141.8162  163.3169 C.ar    1  UNL1        0.1964
@<TRIPOS>BOND
     1    29    30    1
     2    30    31   ar
     3    31    32   ar
     4    32    33   ar
     5    33    34   ar
     6    34    23    1
     7    23    24   ar
     8    24    25   ar
     9    25    26   ar
    10    26    22    1
    11    22    21    1
    12    21    20    1
    13    20    19    1
    14    19     1    1
    15     1     2    1
    16     2     3    1
    17     4     3    1
    18     4     5    1
    19     5     6    1
    20     6     8    1
    21     8     9   ar
    22     9    10   ar
    23    10    11   ar
    24    11    15    1
    25    15    16    1
    26    15    17    1
    27    15    18    1
    28    11    12   ar
    29    12    13   ar
    30    13    14    1
    31     4     7    1
    32    26    27   ar
    33    27    28    1
    34    34    30   ar
    35    27    23   ar
    36     7     1    1
    37     6     4    1
    38    13     8   ar
