@<TRIPOS>MOLECULE
*****
 26 28 0 0 0
SMALL
GASTEIGER

@<TRIPOS>ATOM
      1 C         140.1436  141.1940  166.8023 C.2     1  UNL1        0.2293
      2 O         141.0439  142.3234  167.2072 O.2     1  UNL1       -0.2745
      3 N         139.3745  141.2718  165.5168 N.am    1  UNL1       -0.2589
      4 C         138.4742  140.1424  165.1119 C.3     1  UNL1        0.0985
      5 C         137.7052  140.2202  163.8265 C.3     1  UNL1        0.0266
      6 C         137.8364  141.4273  162.9458 C.3     1  UNL1        0.0294
      7 C         138.7367  142.5567  163.3507 C.ar    1  UNL1       -0.0087
      8 C         138.8680  143.7639  162.4700 C.ar    1  UNL1       -0.0057
      9 C         139.7683  144.8933  162.8749 C.ar    1  UNL1       -0.0028
     10 C         140.5373  144.8155  164.1604 C.ar    1  UNL1       -0.0014
     11 C         140.4061  143.6084  165.0410 C.ar    1  UNL1        0.0143
     12 C         139.5058  142.4789  164.6362 C.ar    1  UNL1        0.0498
     13 C         140.0124  139.9869  167.6829 C.3     1  UNL1        0.0856
     14 C         139.0690  140.7194  169.9902 C.3     1  UNL1        0.0005
     15 C         140.1721  140.1212  169.1683 C.3     1  UNL1        0.0091
     16 C         141.4348  139.6574  169.8319 C.3     1  UNL1        0.0005
     17 C         139.8995  146.1005  161.9943 C.3     1  UNL1        0.1166
     18 N         139.6386  145.9865  160.5216 N.am    1  UNL1       -0.2969
     19 C         140.6723  145.3767  159.6218 C.2     1  UNL1        0.2466
     20 O         141.9669  144.8809  160.1948 O.2     1  UNL1       -0.2701
     21 H         138.7890  146.3119  160.1455 H       1  UNL1        0.1501
     22 C         140.4115  145.2626  158.1490 C.ar    1  UNL1        0.0603
     23 C         140.4791  144.0036  157.3365 C.ar    1  UNL1        0.0120
     24 C         140.1466  144.3505  155.9156 C.ar    1  UNL1        0.0356
     25 S         139.8735  145.8240  155.8499 S.2     1  UNL1       -0.0858
     26 C         140.0372  146.3877  157.2302 C.ar    1  UNL1        0.0400
@<TRIPOS>BOND
     1    14    15    1
     2    15    16    1
     3    15    13    1
     4    13     1    1
     5     1     2    2
     6     1     3   am
     7     3     4    1
     8     4     5    1
     9     5     6    1
    10     6     7    1
    11     7     8   ar
    12     8     9   ar
    13     9    17    1
    14    17    18    1
    15    18    19   am
    16    19    20    2
    17    19    22    1
    18    22    23   ar
    19    23    24   ar
    20    24    25   ar
    21    25    26   ar
    22     9    10   ar
    23    10    11   ar
    24    11    12   ar
    25    12     3    1
    26    12     7   ar
    27    26    22   ar
    28    18    21    1
@<TRIPOS>MOLECULE
*****
 26 28 0 0 0
SMALL
GASTEIGER

@<TRIPOS>ATOM
      1 C         140.7849  140.9237  167.8830 C.2     1  UNL1        0.2293
      2 O         142.1639  141.4481  167.6123 O.2     1  UNL1       -0.2745
      3 N         140.1760  139.9056  166.9651 N.am    1  UNL1       -0.2589
      4 C         138.7970  139.3812  167.2358 C.3     1  UNL1        0.0985
      5 C         138.1881  138.3631  166.3178 C.3     1  UNL1        0.0266
      6 C         138.9583  137.8694  165.1291 C.3     1  UNL1        0.0294
      7 C         140.3373  138.3937  164.8584 C.ar    1  UNL1       -0.0087
      8 C         141.1075  137.9000  163.6696 C.ar    1  UNL1       -0.0057
      9 C         142.4865  138.4243  163.3989 C.ar    1  UNL1       -0.0028
     10 C         143.0953  139.4425  164.3168 C.ar    1  UNL1       -0.0014
     11 C         142.3252  139.9362  165.5056 C.ar    1  UNL1        0.0143
     12 C         140.9462  139.4118  165.7763 C.ar    1  UNL1        0.0498
     13 C         140.0148  141.4175  169.0718 C.3     1  UNL1        0.0856
     14 C         140.4561  143.8559  169.8524 C.3     1  UNL1        0.0005
     15 C         140.6511  142.3793  170.0309 C.3     1  UNL1        0.0091
     16 C         141.4825  141.8647  171.1684 C.3     1  UNL1        0.0005
     17 C         143.2566  137.9306  162.2101 C.3     1  UNL1        0.1166
     18 N         142.5338  137.5612  160.9488 N.am    1  UNL1       -0.2969
     19 C         142.9518  138.1644  159.6407 C.2     1  UNL1        0.2466
     20 O         144.0927  139.1372  159.5938 O.2     1  UNL1       -0.2701
     21 H         141.7850  136.9227  160.9795 H       1  UNL1        0.1501
     22 C         142.2289  137.7950  158.3793 C.ar    1  UNL1        0.0603
     23 C         142.7706  136.9433  157.2697 C.ar    1  UNL1        0.0120
     24 C         141.7139  136.8344  156.2107 C.ar    1  UNL1        0.0356
     25 S         140.5190  137.6188  156.6658 S.2     1  UNL1       -0.0858
     26 C         140.8373  138.2124  158.0060 C.ar    1  UNL1        0.0400
@<TRIPOS>BOND
     1    14    15    1
     2    15    16    1
     3    15    13    1
     4    13     1    1
     5     1     2    2
     6     1     3   am
     7     3     4    1
     8     4     5    1
     9     5     6    1
    10     6     7    1
    11     7     8   ar
    12     8     9   ar
    13     9    17    1
    14    17    18    1
    15    18    19   am
    16    19    20    2
    17    19    22    1
    18    22    23   ar
    19    23    24   ar
    20    24    25   ar
    21    25    26   ar
    22     9    10   ar
    23    10    11   ar
    24    11    12   ar
    25    12     3    1
    26    12     7   ar
    27    26    22   ar
    28    18    21    1
@<TRIPOS>MOLECULE
*****
 26 28 0 0 0
SMALL
GASTEIGER

@<TRIPOS>ATOM
      1 C         139.0221  140.6504  165.7675 C.2     1  UNL1        0.2293
      2 O         137.7540  140.9796  165.0373 O.2     1  UNL1       -0.2745
      3 N         140.2400  141.5055  165.5786 N.am    1  UNL1       -0.2589
      4 C         141.5082  141.1762  166.3089 C.3     1  UNL1        0.0985
      5 C         142.7260  142.0313  166.1200 C.3     1  UNL1        0.0266
      6 C         142.6757  143.2157  165.2009 C.3     1  UNL1        0.0294
      7 C         141.4075  143.5449  164.4707 C.ar    1  UNL1       -0.0087
      8 C         141.3571  144.7293  163.5515 C.ar    1  UNL1       -0.0057
      9 C         140.0889  145.0585  162.8213 C.ar    1  UNL1       -0.0028
     10 C         138.8710  144.2034  163.0102 C.ar    1  UNL1       -0.0014
     11 C         138.9214  143.0191  163.9293 C.ar    1  UNL1        0.0143
     12 C         140.1896  142.6898  164.6596 C.ar    1  UNL1        0.0498
     13 C         139.0725  139.4660  166.6866 C.3     1  UNL1        0.0856
     14 C         138.8253  137.4461  165.0714 C.3     1  UNL1        0.0005
     15 C         138.3897  138.1875  166.3005 C.3     1  UNL1        0.0091
     16 C         137.2714  137.6502  167.1435 C.3     1  UNL1        0.0005
     17 C         140.0385  146.2429  161.9021 C.3     1  UNL1        0.1166
     18 N         139.6538  146.0602  160.4639 N.am    1  UNL1       -0.2969
     19 C         140.6091  145.4078  159.5091 C.2     1  UNL1        0.2466
     20 O         141.9491  144.9380  159.9926 O.2     1  UNL1       -0.2701
     21 H         138.7743  146.3686  160.1466 H       1  UNL1        0.1501
     22 C         140.2244  145.2251  158.0708 C.ar    1  UNL1        0.0603
     23 C         140.0317  146.3199  157.0637 C.ar    1  UNL1        0.0120
     24 C         139.6531  145.6869  155.7576 C.ar    1  UNL1        0.0356
     25 S         139.6119  144.2008  155.9574 S.2     1  UNL1       -0.0858
     26 C         139.9650  143.9154  157.3870 C.ar    1  UNL1        0.0400
@<TRIPOS>BOND
     1    14    15    1
     2    15    16    1
     3    15    13    1
     4    13     1    1
     5     1     2    2
     6     1     3   am
     7     3     4    1
     8     4     5    1
     9     5     6    1
    10     6     7    1
    11     7     8   ar
    12     8     9   ar
    13     9    17    1
    14    17    18    1
    15    18    19   am
    16    19    20    2
    17    19    22    1
    18    22    23   ar
    19    23    24   ar
    20    24    25   ar
    21    25    26   ar
    22     9    10   ar
    23    10    11   ar
    24    11    12   ar
    25    12     3    1
    26    12     7   ar
    27    26    22   ar
    28    18    21    1
@<TRIPOS>MOLECULE
*****
 26 28 0 0 0
SMALL
GASTEIGER

@<TRIPOS>ATOM
      1 C         140.5539  141.5016  168.4904 C.2     1  UNL1        0.2293
      2 O         141.0270  142.9227  168.4090 O.2     1  UNL1       -0.2745
      3 N         139.7442  140.9153  167.3720 N.am    1  UNL1       -0.2589
      4 C         139.2712  139.4942  167.4535 C.3     1  UNL1        0.0985
      5 C         138.4615  138.9080  166.3351 C.3     1  UNL1        0.0266
      6 C         138.1249  139.7429  165.1353 C.3     1  UNL1        0.0294
      7 C         138.5980  141.1640  165.0538 C.ar    1  UNL1       -0.0087
      8 C         138.2614  141.9989  163.8539 C.ar    1  UNL1       -0.0057
      9 C         138.7344  143.4200  163.7725 C.ar    1  UNL1       -0.0028
     10 C         139.5441  144.0062  164.8909 C.ar    1  UNL1       -0.0014
     11 C         139.8807  143.1714  166.0907 C.ar    1  UNL1        0.0143
     12 C         139.4076  141.7502  166.1722 C.ar    1  UNL1        0.0498
     13 C         140.8905  140.6667  169.6903 C.3     1  UNL1        0.0856
     14 C         143.4097  141.1851  170.0577 C.3     1  UNL1        0.0005
     15 C         142.2972  140.1910  169.9022 C.3     1  UNL1        0.0091
     16 C         142.5914  138.7212  169.9588 C.3     1  UNL1        0.0005
     17 C         138.3978  144.2549  162.5726 C.3     1  UNL1        0.1166
     18 N         139.2024  144.1182  161.3141 N.am    1  UNL1       -0.2969
     19 C         139.9718  145.2919  160.7846 C.2     1  UNL1        0.2466
     20 O         139.9365  146.6024  161.5136 O.2     1  UNL1       -0.2701
     21 H         139.2256  143.2581  160.8357 H       1  UNL1        0.1501
     22 C         140.7764  145.1552  159.5261 C.ar    1  UNL1        0.0603
     23 C         141.9475  144.2402  159.3233 C.ar    1  UNL1        0.0120
     24 C         142.4461  144.4290  157.9213 C.ar    1  UNL1        0.0356
     25 S         141.5831  145.4609  157.2575 S.2     1  UNL1       -0.0858
     26 C         140.5512  145.9097  158.2493 C.ar    1  UNL1        0.0400
@<TRIPOS>BOND
     1    14    15    1
     2    15    16    1
     3    15    13    1
     4    13     1    1
     5     1     2    2
     6     1     3   am
     7     3     4    1
     8     4     5    1
     9     5     6    1
    10     6     7    1
    11     7     8   ar
    12     8     9   ar
    13     9    17    1
    14    17    18    1
    15    18    19   am
    16    19    20    2
    17    19    22    1
    18    22    23   ar
    19    23    24   ar
    20    24    25   ar
    21    25    26   ar
    22     9    10   ar
    23    10    11   ar
    24    11    12   ar
    25    12     3    1
    26    12     7   ar
    27    26    22   ar
    28    18    21    1
@<TRIPOS>MOLECULE
*****
 26 28 0 0 0
SMALL
GASTEIGER

@<TRIPOS>ATOM
      1 C         140.9307  140.7645  167.7396 C.2     1  UNL1        0.2293
      2 O         142.3273  141.2912  167.5912 O.2     1  UNL1       -0.2745
      3 N         140.3802  139.8032  166.7283 N.am    1  UNL1       -0.2589
      4 C         138.9836  139.2765  166.8768 C.3     1  UNL1        0.0985
      5 C         138.4331  138.3152  165.8655 C.3     1  UNL1        0.0266
      6 C         139.2792  137.8805  164.7057 C.3     1  UNL1        0.0294
      7 C         140.6758  138.4072  164.5572 C.ar    1  UNL1       -0.0087
      8 C         141.5219  137.9726  163.3974 C.ar    1  UNL1       -0.0057
      9 C         142.9185  138.4993  163.2489 C.ar    1  UNL1       -0.0028
     10 C         143.4690  139.4606  164.2602 C.ar    1  UNL1       -0.0014
     11 C         142.6229  139.8952  165.4200 C.ar    1  UNL1        0.0143
     12 C         141.2263  139.3685  165.5685 C.ar    1  UNL1        0.0498
     13 C         140.0846  141.1992  168.8994 C.3     1  UNL1        0.0856
     14 C         141.3600  141.6398  171.1197 C.3     1  UNL1        0.0005
     15 C         140.6361  142.1582  169.9124 C.3     1  UNL1        0.0091
     16 C         140.4639  143.6355  169.7182 C.3     1  UNL1        0.0005
     17 C         143.7647  138.0646  162.0890 C.3     1  UNL1        0.1166
     18 N         144.2723  139.0802  161.1088 N.am    1  UNL1       -0.2969
     19 C         143.3922  139.5441  159.9862 C.2     1  UNL1        0.2466
     20 O         142.0046  138.9925  159.8439 O.2     1  UNL1       -0.2701
     21 H         145.1830  139.4422  161.2022 H       1  UNL1        0.1501
     22 C         143.8998  140.5597  159.0059 C.ar    1  UNL1        0.0603
     23 C         144.2831  141.9752  159.3216 C.ar    1  UNL1        0.0120
     24 C         144.7333  142.6284  158.0485 C.ar    1  UNL1        0.0356
     25 S         144.6283  141.6167  156.9460 S.2     1  UNL1       -0.0858
     26 C         144.1132  140.3382  157.5377 C.ar    1  UNL1        0.0400
@<TRIPOS>BOND
     1    14    15    1
     2    15    16    1
     3    15    13    1
     4    13     1    1
     5     1     2    2
     6     1     3   am
     7     3     4    1
     8     4     5    1
     9     5     6    1
    10     6     7    1
    11     7     8   ar
    12     8     9   ar
    13     9    17    1
    14    17    18    1
    15    18    19   am
    16    19    20    2
    17    19    22    1
    18    22    23   ar
    19    23    24   ar
    20    24    25   ar
    21    25    26   ar
    22     9    10   ar
    23    10    11   ar
    24    11    12   ar
    25    12     3    1
    26    12     7   ar
    27    26    22   ar
    28    18    21    1
@<TRIPOS>MOLECULE
*****
 26 28 0 0 0
SMALL
GASTEIGER

@<TRIPOS>ATOM
      1 C         140.7579  141.6093  167.1729 C.2     1  UNL1        0.2293
      2 O         141.1349  140.1576  167.1918 O.2     1  UNL1       -0.2745
      3 N         139.8825  142.1427  166.0779 N.am    1  UNL1       -0.2589
      4 C         139.5055  143.5944  166.0590 C.3     1  UNL1        0.0985
      5 C         138.6300  144.1278  164.9640 C.3     1  UNL1        0.0266
      6 C         138.1315  143.2095  163.8879 C.3     1  UNL1        0.0294
      7 C         138.5085  141.7578  163.9067 C.ar    1  UNL1       -0.0087
      8 C         138.0100  140.8394  162.8305 C.ar    1  UNL1       -0.0057
      9 C         138.3870  139.3877  162.8494 C.ar    1  UNL1       -0.0028
     10 C         139.2624  138.8543  163.9444 C.ar    1  UNL1       -0.0014
     11 C         139.7609  139.7726  165.0206 C.ar    1  UNL1        0.0143
     12 C         139.3840  141.2244  165.0017 C.ar    1  UNL1        0.0498
     13 C         141.2564  142.5276  168.2491 C.3     1  UNL1        0.0856
     14 C         140.3304  144.1772  170.0300 C.3     1  UNL1        0.0005
     15 C         140.4118  142.7920  169.4601 C.3     1  UNL1        0.0091
     16 C         139.6485  141.6712  170.1014 C.3     1  UNL1        0.0005
     17 C         137.8884  138.4693  161.7732 C.3     1  UNL1        0.1166
     18 N         138.8374  137.9424  160.7379 N.am    1  UNL1       -0.2969
     19 C         139.2707  138.8205  159.6017 C.2     1  UNL1        0.2466
     20 O         138.7552  140.2254  159.5007 O.2     1  UNL1       -0.2701
     21 H         139.1758  137.0202  160.8042 H       1  UNL1        0.1501
     22 C         140.2197  138.2936  158.5663 C.ar    1  UNL1        0.0603
     23 C         141.7155  138.2647  158.6746 C.ar    1  UNL1        0.0120
     24 C         142.2597  137.6564  157.4161 C.ar    1  UNL1        0.0356
     25 S         141.1002  137.3092  156.5300 S.2     1  UNL1       -0.0858
     26 C         139.8394  137.7030  157.2409 C.ar    1  UNL1        0.0400
@<TRIPOS>BOND
     1    14    15    1
     2    15    16    1
     3    15    13    1
     4    13     1    1
     5     1     2    2
     6     1     3   am
     7     3     4    1
     8     4     5    1
     9     5     6    1
    10     6     7    1
    11     7     8   ar
    12     8     9   ar
    13     9    17    1
    14    17    18    1
    15    18    19   am
    16    19    20    2
    17    19    22    1
    18    22    23   ar
    19    23    24   ar
    20    24    25   ar
    21    25    26   ar
    22     9    10   ar
    23    10    11   ar
    24    11    12   ar
    25    12     3    1
    26    12     7   ar
    27    26    22   ar
    28    18    21    1
@<TRIPOS>MOLECULE
*****
 26 28 0 0 0
SMALL
GASTEIGER

@<TRIPOS>ATOM
      1 C         140.9830  141.0085  166.4835 C.2     1  UNL1        0.2293
      2 O         139.5224  140.9974  166.1422 O.2     1  UNL1       -0.2745
      3 N         141.8924  142.0225  165.8550 N.am    1  UNL1       -0.2589
      4 C         143.3529  142.0336  166.1963 C.3     1  UNL1        0.0985
      5 C         144.2623  143.0475  165.5679 C.3     1  UNL1        0.0266
      6 C         143.7111  144.0503  164.5980 C.3     1  UNL1        0.0294
      7 C         142.2505  144.0392  164.2567 C.ar    1  UNL1       -0.0087
      8 C         141.6993  145.0420  163.2869 C.ar    1  UNL1       -0.0057
      9 C         140.2387  145.0308  162.9455 C.ar    1  UNL1       -0.0028
     10 C         139.3293  144.0169  163.5740 C.ar    1  UNL1       -0.0014
     11 C         139.8805  143.0141  164.5438 C.ar    1  UNL1        0.0143
     12 C         141.3412  143.0252  164.8852 C.ar    1  UNL1        0.0498
     13 C         141.5342  140.0058  167.4533 C.3     1  UNL1        0.0856
     14 C         142.1014  139.3288  169.8967 C.3     1  UNL1        0.0005
     15 C         141.4090  140.2425  168.9292 C.3     1  UNL1        0.0091
     16 C         140.5916  141.3928  169.4377 C.3     1  UNL1        0.0005
     17 C         139.6874  146.0336  161.9757 C.3     1  UNL1        0.1166
     18 N         140.3176  146.1947  160.6241 N.am    1  UNL1       -0.2969
     19 C         140.0932  145.1578  159.5637 C.2     1  UNL1        0.2466
     20 O         139.2388  143.9599  159.8549 O.2     1  UNL1       -0.2701
     21 H         140.8784  146.9810  160.4329 H       1  UNL1        0.1501
     22 C         140.7234  145.3189  158.2119 C.ar    1  UNL1        0.0603
     23 C         140.1190  146.0276  157.0362 C.ar    1  UNL1        0.0120
     24 C         141.0907  145.9462  155.8963 C.ar    1  UNL1        0.0356
     25 S         142.2956  145.1871  156.3676 S.2     1  UNL1       -0.0858
     26 C         142.0686  144.7995  157.7987 C.ar    1  UNL1        0.0400
@<TRIPOS>BOND
     1    14    15    1
     2    15    16    1
     3    15    13    1
     4    13     1    1
     5     1     2    2
     6     1     3   am
     7     3     4    1
     8     4     5    1
     9     5     6    1
    10     6     7    1
    11     7     8   ar
    12     8     9   ar
    13     9    17    1
    14    17    18    1
    15    18    19   am
    16    19    20    2
    17    19    22    1
    18    22    23   ar
    19    23    24   ar
    20    24    25   ar
    21    25    26   ar
    22     9    10   ar
    23    10    11   ar
    24    11    12   ar
    25    12     3    1
    26    12     7   ar
    27    26    22   ar
    28    18    21    1
@<TRIPOS>MOLECULE
*****
 26 28 0 0 0
SMALL
GASTEIGER

@<TRIPOS>ATOM
      1 C         139.7930  144.3901  161.8862 C.2     1  UNL1        0.2293
      2 O         139.1249  143.8448  160.6590 O.2     1  UNL1       -0.2745
      3 N         141.2730  144.2282  162.0691 N.am    1  UNL1       -0.2589
      4 C         141.9412  144.7735  163.2963 C.3     1  UNL1        0.0985
      5 C         143.4212  144.6116  163.4792 C.3     1  UNL1        0.0266
      6 C         144.2330  143.9044  162.4348 C.3     1  UNL1        0.0294
      7 C         143.5648  143.3592  161.2076 C.ar    1  UNL1       -0.0087
      8 C         144.3767  142.6519  160.1631 C.ar    1  UNL1       -0.0057
      9 C         143.7085  142.1067  158.9359 C.ar    1  UNL1       -0.0028
     10 C         142.2286  142.2685  158.7530 C.ar    1  UNL1       -0.0014
     11 C         141.4167  142.9757  159.7974 C.ar    1  UNL1        0.0143
     12 C         142.0849  143.5210  161.0247 C.ar    1  UNL1        0.0498
     13 C         138.9812  145.0973  162.9306 C.3     1  UNL1        0.0856
     14 C         138.5561  144.9097  165.4868 C.3     1  UNL1        0.0005
     15 C         138.4435  144.3355  164.1056 C.3     1  UNL1        0.0091
     16 C         137.7932  142.9997  163.8994 C.3     1  UNL1        0.0005
     17 C         144.5204  141.3994  157.8914 C.3     1  UNL1        0.1166
     18 N         144.3858  139.9161  157.7140 N.am    1  UNL1       -0.2969
     19 C         143.5393  139.3673  156.6040 C.2     1  UNL1        0.2466
     20 O         142.8274  140.3019  155.6713 O.2     1  UNL1       -0.2701
     21 H         144.8530  139.3027  158.3261 H       1  UNL1        0.1501
     22 C         143.4046  137.8839  156.4266 C.ar    1  UNL1        0.0603
     23 C         142.5199  136.9766  157.2291 C.ar    1  UNL1        0.0120
     24 C         142.6995  135.5794  156.7140 C.ar    1  UNL1        0.0356
     25 S         143.6954  135.6230  155.5930 S.2     1  UNL1       -0.0858
     26 C         144.1311  137.0473  155.4154 C.ar    1  UNL1        0.0400
@<TRIPOS>BOND
     1    14    15    1
     2    15    16    1
     3    15    13    1
     4    13     1    1
     5     1     2    2
     6     1     3   am
     7     3     4    1
     8     4     5    1
     9     5     6    1
    10     6     7    1
    11     7     8   ar
    12     8     9   ar
    13     9    17    1
    14    17    18    1
    15    18    19   am
    16    19    20    2
    17    19    22    1
    18    22    23   ar
    19    23    24   ar
    20    24    25   ar
    21    25    26   ar
    22     9    10   ar
    23    10    11   ar
    24    11    12   ar
    25    12     3    1
    26    12     7   ar
    27    26    22   ar
    28    18    21    1
@<TRIPOS>MOLECULE
*****
 26 28 0 0 0
SMALL
GASTEIGER

@<TRIPOS>ATOM
      1 C         140.7830  140.6406  166.7475 C.2     1  UNL1        0.2293
      2 O         140.0540  139.3928  166.3456 O.2     1  UNL1       -0.2745
      3 N         142.0217  141.0559  166.0105 N.am    1  UNL1       -0.2589
      4 C         142.7507  142.3037  166.4124 C.3     1  UNL1        0.0985
      5 C         143.9894  142.7189  165.6755 C.3     1  UNL1        0.0266
      6 C         144.4992  141.8865  164.5366 C.3     1  UNL1        0.0294
      7 C         143.7702  140.6387  164.1347 C.ar    1  UNL1       -0.0087
      8 C         144.2799  139.8061  162.9958 C.ar    1  UNL1       -0.0057
      9 C         143.5509  138.5583  162.5938 C.ar    1  UNL1       -0.0028
     10 C         142.3122  138.1431  163.3308 C.ar    1  UNL1       -0.0014
     11 C         141.8025  138.9755  164.4697 C.ar    1  UNL1        0.0143
     12 C         142.5315  140.2234  164.8716 C.ar    1  UNL1        0.0498
     13 C         140.2733  141.4731  167.8864 C.3     1  UNL1        0.0856
     14 C         138.9636  140.3629  169.8363 C.3     1  UNL1        0.0005
     15 C         140.2440  140.9067  169.2750 C.3     1  UNL1        0.0091
     16 C         141.4949  140.8843  170.1024 C.3     1  UNL1        0.0005
     17 C         144.0607  137.7258  161.4549 C.3     1  UNL1        0.1166
     18 N         143.1283  137.3037  160.3583 N.am    1  UNL1       -0.2969
     19 C         142.9599  138.1671  159.1434 C.2     1  UNL1        0.2466
     20 O         143.7239  139.4525  159.0249 O.2     1  UNL1       -0.2701
     21 H         142.6268  136.4601  160.4361 H       1  UNL1        0.1501
     22 C         142.0274  137.7450  158.0467 C.ar    1  UNL1        0.0603
     23 C         140.6161  138.2170  157.8591 C.ar    1  UNL1        0.0120
     24 C         140.0591  137.5406  156.6416 C.ar    1  UNL1        0.0356
     25 S         141.1263  136.6505  156.0768 S.2     1  UNL1       -0.0858
     26 C         142.3428  136.7769  156.9452 C.ar    1  UNL1        0.0400
@<TRIPOS>BOND
     1    14    15    1
     2    15    16    1
     3    15    13    1
     4    13     1    1
     5     1     2    2
     6     1     3   am
     7     3     4    1
     8     4     5    1
     9     5     6    1
    10     6     7    1
    11     7     8   ar
    12     8     9   ar
    13     9    17    1
    14    17    18    1
    15    18    19   am
    16    19    20    2
    17    19    22    1
    18    22    23   ar
    19    23    24   ar
    20    24    25   ar
    21    25    26   ar
    22     9    10   ar
    23    10    11   ar
    24    11    12   ar
    25    12     3    1
    26    12     7   ar
    27    26    22   ar
    28    18    21    1
