@<TRIPOS>MOLECULE
*****
 23 25 0 0 0
SMALL
GASTEIGER

@<TRIPOS>ATOM
      1 C         142.0088  141.4488  168.3550 C.ar    1  UNL1        0.1384
      2 C         141.5107  140.0613  168.0780 C.ar    1  UNL1        0.0369
      3 C         140.4461  139.8389  167.0449 C.ar    1  UNL1        0.0025
      4 C         139.8796  141.0039  166.2889 C.ar    1  UNL1       -0.0076
      5 C         140.3777  142.3914  166.5659 C.ar    1  UNL1       -0.0154
      6 C         141.4423  142.6138  167.5989 C.ar    1  UNL1        0.0329
      7 C         139.6360  143.3379  165.6690 C.3     1  UNL1        0.0481
      8 C         138.6795  142.5352  164.8378 C.2     1  UNL1       -0.0420
      9 C         138.8301  141.0928  165.2209 C.2     1  UNL1       -0.0239
     10 C         142.9996  142.8624  170.2966 C.3     1  UNL1        0.2525
     11 O         143.0733  141.6712  169.3880 O.3     1  UNL1       -0.4714
     12 C         137.7378  143.0795  163.8048 C.3     1  UNL1        0.0394
     13 C         137.9904  144.4265  163.1951 C.3     1  UNL1        0.0765
     14 N         138.9919  144.5728  162.0881 N.3     1  UNL1       -0.2700
     15 C         139.6943  145.8818  161.8803 C.3     1  UNL1        0.0897
     16 C         139.2909  143.4101  161.1889 C.3     1  UNL1        0.0897
     17 C         138.0654  139.9414  164.6382 C.3     1  UNL1        0.0730
     18 C         138.4631  139.3733  163.3081 C.ar    1  UNL1        0.0825
     19 C         139.4324  138.2306  163.2402 C.ar    1  UNL1        0.1139
     20 N         139.8300  137.6625  161.9101 N.ar    1  UNL1       -0.2394
     21 C         139.2583  138.2371  160.6479 C.ar    1  UNL1        0.1195
     22 C         138.2890  139.3798  160.7159 C.ar    1  UNL1        0.1191
     23 N         137.8914  139.9479  162.0460 N.ar    1  UNL1       -0.2446
@<TRIPOS>BOND
     1    10    11    1
     2    11     1    1
     3     1     2   ar
     4     2     3   ar
     5     3     4   ar
     6     4     5   ar
     7     5     6   ar
     8     5     7    1
     9     7     8    1
    10     8    12    1
    11    12    13    1
    12    13    14    1
    13    14    15    1
    14    14    16    1
    15     8     9    2
    16     9    17    1
    17    17    18    1
    18    18    19   ar
    19    19    20   ar
    20    20    21   ar
    21    21    22   ar
    22    22    23   ar
    23     6     1   ar
    24    23    18   ar
    25     9     4    1
@<TRIPOS>MOLECULE
*****
 23 25 0 0 0
SMALL
GASTEIGER

@<TRIPOS>ATOM
      1 C         140.0063  141.2865  169.1914 C.ar    1  UNL1        0.1384
      2 C         140.7820  142.2604  168.3549 C.ar    1  UNL1        0.0369
      3 C         140.7952  142.1222  166.8614 C.ar    1  UNL1        0.0025
      4 C         140.0327  141.0102  166.2043 C.ar    1  UNL1       -0.0076
      5 C         139.2569  140.0363  167.0407 C.ar    1  UNL1       -0.0154
      6 C         139.2437  140.1745  168.5343 C.ar    1  UNL1        0.0329
      7 C         138.6056  139.0488  166.1183 C.3     1  UNL1        0.0481
      8 C         138.9790  139.4124  164.7118 C.2     1  UNL1       -0.0420
      9 C         139.8609  140.6246  164.7649 C.2     1  UNL1       -0.0239
     10 C         141.2825  141.4085  171.4511 C.3     1  UNL1        0.2525
     11 O         139.9931  141.4247  170.6850 O.3     1  UNL1       -0.4714
     12 C         138.5463  138.6906  163.4700 C.3     1  UNL1        0.0394
     13 C         139.4094  137.6083  162.8925 C.3     1  UNL1        0.0765
     14 N         140.6964  137.9608  162.2074 N.3     1  UNL1       -0.2700
     15 C         141.9981  137.8236  162.9400 C.3     1  UNL1        0.0897
     16 C         140.6816  138.4504  160.7896 C.3     1  UNL1        0.0897
     17 C         140.4650  141.3278  163.5857 C.3     1  UNL1        0.0730
     18 C         139.9896  142.6988  163.2057 C.ar    1  UNL1        0.0825
     19 C         138.5556  142.9162  162.8234 C.ar    1  UNL1        0.1139
     20 N         138.0802  144.2872  162.4434 N.ar    1  UNL1       -0.2394
     21 C         139.0389  145.4408  162.4456 C.ar    1  UNL1        0.1195
     22 C         140.4730  145.2234  162.8279 C.ar    1  UNL1        0.1191
     23 N         140.9484  143.8524  163.2079 N.ar    1  UNL1       -0.2446
@<TRIPOS>BOND
     1    10    11    1
     2    11     1    1
     3     1     2   ar
     4     2     3   ar
     5     3     4   ar
     6     4     5   ar
     7     5     6   ar
     8     5     7    1
     9     7     8    1
    10     8    12    1
    11    12    13    1
    12    13    14    1
    13    14    15    1
    14    14    16    1
    15     8     9    2
    16     9    17    1
    17    17    18    1
    18    18    19   ar
    19    19    20   ar
    20    20    21   ar
    21    21    22   ar
    22    22    23   ar
    23     6     1   ar
    24    23    18   ar
    25     9     4    1
@<TRIPOS>MOLECULE
*****
 23 25 0 0 0
SMALL
GASTEIGER

@<TRIPOS>ATOM
      1 C         140.0017  140.8817  169.0775 C.ar    1  UNL1        0.1384
      2 C         141.4704  141.1104  168.8759 C.ar    1  UNL1        0.0369
      3 C         142.1716  140.4928  167.7026 C.ar    1  UNL1        0.0025
      4 C         141.4041  139.6464  166.7307 C.ar    1  UNL1       -0.0076
      5 C         139.9355  139.4177  166.9322 C.ar    1  UNL1       -0.0154
      6 C         139.2343  140.0353  168.1056 C.ar    1  UNL1        0.0329
      7 C         139.4452  138.5430  165.8165 C.3     1  UNL1        0.0481
      8 C         140.6108  138.2313  164.9255 C.2     1  UNL1       -0.0420
      9 C         141.8215  138.9132  165.4905 C.2     1  UNL1       -0.0239
     10 C         139.6848  142.8724  170.7165 C.3     1  UNL1        0.2525
     11 O         139.3005  141.4993  170.2509 O.3     1  UNL1       -0.4714
     12 C         140.5726  137.3860  163.6868 C.3     1  UNL1        0.0394
     13 C         140.6888  138.0286  162.3364 C.3     1  UNL1        0.0765
     14 N         139.4661  138.2191  161.4887 N.3     1  UNL1       -0.2700
     15 C         139.6071  138.5733  160.0380 C.3     1  UNL1        0.0897
     16 C         138.1025  138.0552  162.0917 C.3     1  UNL1        0.0897
     17 C         143.2065  138.8696  164.9161 C.3     1  UNL1        0.0730
     18 C         143.7461  140.0529  164.1686 C.ar    1  UNL1        0.0825
     19 C         145.2252  140.2035  163.9696 C.ar    1  UNL1        0.1139
     20 N         145.7647  141.3868  163.2221 N.ar    1  UNL1       -0.2394
     21 C         144.8252  142.4195  162.6736 C.ar    1  UNL1        0.1195
     22 C         143.3461  142.2689  162.8727 C.ar    1  UNL1        0.1191
     23 N         142.8066  141.0856  163.6201 N.ar    1  UNL1       -0.2446
@<TRIPOS>BOND
     1    10    11    1
     2    11     1    1
     3     1     2   ar
     4     2     3   ar
     5     3     4   ar
     6     4     5   ar
     7     5     6   ar
     8     5     7    1
     9     7     8    1
    10     8    12    1
    11    12    13    1
    12    13    14    1
    13    14    15    1
    14    14    16    1
    15     8     9    2
    16     9    17    1
    17    17    18    1
    18    18    19   ar
    19    19    20   ar
    20    20    21   ar
    21    21    22   ar
    22    22    23   ar
    23     6     1   ar
    24    23    18   ar
    25     9     4    1
@<TRIPOS>MOLECULE
*****
 23 25 0 0 0
SMALL
GASTEIGER

@<TRIPOS>ATOM
      1 C         141.6183  140.9071  169.2695 C.ar    1  UNL1        0.1384
      2 C         140.1346  140.8805  169.0513 C.ar    1  UNL1        0.0369
      3 C         139.5643  140.1698  167.8598 C.ar    1  UNL1        0.0025
      4 C         140.4779  139.4858  166.8864 C.ar    1  UNL1       -0.0076
      5 C         141.9616  139.5124  167.1046 C.ar    1  UNL1       -0.0154
      6 C         142.5319  140.2231  168.2961 C.ar    1  UNL1        0.0329
      7 C         142.6088  138.7547  165.9833 C.3     1  UNL1        0.0481
      8 C         141.5248  138.2599  165.0721 C.2     1  UNL1       -0.0420
      9 C         140.2079  138.7117  165.6303 C.2     1  UNL1       -0.0239
     10 C         142.7802  142.9874  170.3052 C.3     1  UNL1        0.2525
     11 O         142.1886  141.6178  170.4610 O.3     1  UNL1       -0.4714
     12 C         141.7230  137.4546  163.8222 C.3     1  UNL1        0.0394
     13 C         141.9250  138.1479  162.5074 C.3     1  UNL1        0.0765
     14 N         142.4669  139.5461  162.4724 N.3     1  UNL1       -0.2700
     15 C         143.9418  139.7825  162.6096 C.3     1  UNL1        0.0897
     16 C         141.5340  140.7080  162.3000 C.3     1  UNL1        0.0897
     17 C         138.8580  138.4375  165.0366 C.3     1  UNL1        0.0730
     18 C         138.4408  139.1274  163.7716 C.ar    1  UNL1        0.0825
     19 C         138.0816  140.5835  163.7949 C.ar    1  UNL1        0.1139
     20 N         137.6644  141.2734  162.5299 N.ar    1  UNL1       -0.2394
     21 C         137.6065  140.5071  161.2417 C.ar    1  UNL1        0.1195
     22 C         137.9658  139.0510  161.2185 C.ar    1  UNL1        0.1191
     23 N         138.3829  138.3611  162.4834 N.ar    1  UNL1       -0.2446
@<TRIPOS>BOND
     1    10    11    1
     2    11     1    1
     3     1     2   ar
     4     2     3   ar
     5     3     4   ar
     6     4     5   ar
     7     5     6   ar
     8     5     7    1
     9     7     8    1
    10     8    12    1
    11    12    13    1
    12    13    14    1
    13    14    15    1
    14    14    16    1
    15     8     9    2
    16     9    17    1
    17    17    18    1
    18    18    19   ar
    19    19    20   ar
    20    20    21   ar
    21    21    22   ar
    22    22    23   ar
    23     6     1   ar
    24    23    18   ar
    25     9     4    1
@<TRIPOS>MOLECULE
*****
 23 25 0 0 0
SMALL
GASTEIGER

@<TRIPOS>ATOM
      1 C         141.3916  140.9144  168.7182 C.ar    1  UNL1        0.1384
      2 C         142.6222  140.2120  168.2262 C.ar    1  UNL1        0.0369
      3 C         142.5482  139.3277  167.0169 C.ar    1  UNL1        0.0025
      4 C         141.2436  139.1457  166.2995 C.ar    1  UNL1       -0.0076
      5 C         140.0129  139.8481  166.7915 C.ar    1  UNL1       -0.0154
      6 C         140.0869  140.7324  168.0008 C.ar    1  UNL1        0.0329
      7 C         138.8755  139.4796  165.8856 C.3     1  UNL1        0.0481
      8 C         139.4033  138.5495  164.8338 C.2     1  UNL1       -0.0420
      9 C         140.8668  138.3431  165.0896 C.2     1  UNL1       -0.0239
     10 C         142.5456  142.8341  170.0345 C.3     1  UNL1        0.2525
     11 O         141.4655  141.7988  169.9275 O.3     1  UNL1       -0.4714
     12 C         138.6073  137.9338  163.7213 C.3     1  UNL1        0.0394
     13 C         138.4765  138.6476  162.4085 C.3     1  UNL1        0.0765
     14 N         138.6777  140.1324  162.3388 N.3     1  UNL1       -0.2700
     15 C         139.9961  140.6904  161.8914 C.3     1  UNL1        0.0897
     16 C         137.5603  141.0591  162.7166 C.3     1  UNL1        0.0897
     17 C         141.7913  137.4849  164.2780 C.3     1  UNL1        0.0730
     18 C         142.3832  138.0148  163.0057 C.ar    1  UNL1        0.0825
     19 C         143.4943  139.0211  163.0574 C.ar    1  UNL1        0.1139
     20 N         144.0861  139.5510  161.7850 N.ar    1  UNL1       -0.2394
     21 C         143.5668  139.0746  160.4609 C.ar    1  UNL1        0.1195
     22 C         142.4557  138.0682  160.4091 C.ar    1  UNL1        0.1191
     23 N         141.8639  137.5383  161.6815 N.ar    1  UNL1       -0.2446
@<TRIPOS>BOND
     1    10    11    1
     2    11     1    1
     3     1     2   ar
     4     2     3   ar
     5     3     4   ar
     6     4     5   ar
     7     5     6   ar
     8     5     7    1
     9     7     8    1
    10     8    12    1
    11    12    13    1
    12    13    14    1
    13    14    15    1
    14    14    16    1
    15     8     9    2
    16     9    17    1
    17    17    18    1
    18    18    19   ar
    19    19    20   ar
    20    20    21   ar
    21    21    22   ar
    22    22    23   ar
    23     6     1   ar
    24    23    18   ar
    25     9     4    1
@<TRIPOS>MOLECULE
*****
 23 25 0 0 0
SMALL
GASTEIGER

@<TRIPOS>ATOM
      1 C         140.0967  141.4235  169.2855 C.ar    1  UNL1        0.1384
      2 C         140.5121  142.6320  168.5000 C.ar    1  UNL1        0.0369
      3 C         140.3483  142.6501  167.0090 C.ar    1  UNL1        0.0025
      4 C         139.7692  141.4597  166.3036 C.ar    1  UNL1       -0.0076
      5 C         139.3538  140.2513  167.0892 C.ar    1  UNL1       -0.0154
      6 C         139.5175  140.2332  168.5801 C.ar    1  UNL1        0.0329
      7 C         138.8175  139.2341  166.1259 C.3     1  UNL1        0.0481
      8 C         138.9014  139.8139  164.7451 C.2     1  UNL1       -0.0420
      9 C         139.4896  141.1894  164.8549 C.2     1  UNL1       -0.0239
     10 C         141.6014  141.1098  171.3801 C.3     1  UNL1        0.2525
     11 O         140.2604  141.4054  170.7764 O.3     1  UNL1       -0.4714
     12 C         138.4725  139.1371  163.4770 C.3     1  UNL1        0.0394
     13 C         139.0120  137.7809  163.1312 C.3     1  UNL1        0.0765
     14 N         140.4938  137.5567  163.0692 N.3     1  UNL1       -0.2700
     15 C         141.2507  137.8871  161.8170 C.3     1  UNL1        0.0897
     16 C         141.2188  137.0021  164.2594 C.3     1  UNL1        0.0897
     17 C         139.7521  142.1296  163.7160 C.3     1  UNL1        0.0730
     18 C         140.9984  142.9643  163.7046 C.ar    1  UNL1        0.0825
     19 C         142.3415  142.3053  163.5964 C.ar    1  UNL1        0.1139
     20 N         143.5877  143.1401  163.5849 N.ar    1  UNL1       -0.2394
     21 C         143.4909  144.6338  163.6816 C.ar    1  UNL1        0.1195
     22 C         142.1477  145.2928  163.7898 C.ar    1  UNL1        0.1191
     23 N         140.9015  144.4581  163.8013 N.ar    1  UNL1       -0.2446
@<TRIPOS>BOND
     1    10    11    1
     2    11     1    1
     3     1     2   ar
     4     2     3   ar
     5     3     4   ar
     6     4     5   ar
     7     5     6   ar
     8     5     7    1
     9     7     8    1
    10     8    12    1
    11    12    13    1
    12    13    14    1
    13    14    15    1
    14    14    16    1
    15     8     9    2
    16     9    17    1
    17    17    18    1
    18    18    19   ar
    19    19    20   ar
    20    20    21   ar
    21    21    22   ar
    22    22    23   ar
    23     6     1   ar
    24    23    18   ar
    25     9     4    1
@<TRIPOS>MOLECULE
*****
 23 25 0 0 0
SMALL
GASTEIGER

@<TRIPOS>ATOM
      1 C         140.6929  141.3478  168.4209 C.ar    1  UNL1        0.1384
      2 C         140.7734  139.9053  168.0174 C.ar    1  UNL1        0.0369
      3 C         141.7336  139.4785  166.9469 C.ar    1  UNL1        0.0025
      4 C         142.6131  140.4940  166.2800 C.ar    1  UNL1       -0.0076
      5 C         142.5326  141.9365  166.6835 C.ar    1  UNL1       -0.0154
      6 C         141.5724  142.3633  167.7539 C.ar    1  UNL1        0.0329
      7 C         143.5179  142.7056  165.8541 C.3     1  UNL1        0.0481
      8 C         144.2074  141.7384  164.9381 C.2     1  UNL1       -0.0420
      9 C         143.6482  140.3716  165.2013 C.2     1  UNL1       -0.0239
     10 C         140.0391  142.9736  170.3390 C.3     1  UNL1        0.2525
     11 O         139.7327  141.7746  169.4914 O.3     1  UNL1       -0.4714
     12 C         145.2696  142.0783  163.9349 C.3     1  UNL1        0.0394
     13 C         144.8835  142.5262  162.5564 C.3     1  UNL1        0.0765
     14 N         143.5257  143.1147  162.3119 N.3     1  UNL1       -0.2700
     15 C         143.2625  144.5549  162.6386 C.3     1  UNL1        0.0897
     16 C         142.4310  142.2631  161.7406 C.3     1  UNL1        0.0897
     17 C         144.0530  139.1048  164.5076 C.3     1  UNL1        0.0730
     18 C         143.4268  138.7350  163.1957 C.ar    1  UNL1        0.0825
     19 C         142.1202  137.9987  163.1694 C.ar    1  UNL1        0.1139
     20 N         141.4939  137.6289  161.8575 N.ar    1  UNL1       -0.2394
     21 C         142.1742  137.9954  160.5719 C.ar    1  UNL1        0.1195
     22 C         143.4808  138.7317  160.5981 C.ar    1  UNL1        0.1191
     23 N         144.1071  139.1014  161.9100 N.ar    1  UNL1       -0.2446
@<TRIPOS>BOND
     1    10    11    1
     2    11     1    1
     3     1     2   ar
     4     2     3   ar
     5     3     4   ar
     6     4     5   ar
     7     5     6   ar
     8     5     7    1
     9     7     8    1
    10     8    12    1
    11    12    13    1
    12    13    14    1
    13    14    15    1
    14    14    16    1
    15     8     9    2
    16     9    17    1
    17    17    18    1
    18    18    19   ar
    19    19    20   ar
    20    20    21   ar
    21    21    22   ar
    22    22    23   ar
    23     6     1   ar
    24    23    18   ar
    25     9     4    1
@<TRIPOS>MOLECULE
*****
 23 25 0 0 0
SMALL
GASTEIGER

@<TRIPOS>ATOM
      1 C         140.3604  140.0889  168.9115 C.ar    1  UNL1        0.1384
      2 C         139.1638  139.9992  168.0116 C.ar    1  UNL1        0.0369
      3 C         139.3446  139.7209  166.5488 C.ar    1  UNL1        0.0025
      4 C         140.7221  139.5323  165.9859 C.ar    1  UNL1       -0.0076
      5 C         141.9187  139.6220  166.8858 C.ar    1  UNL1       -0.0154
      6 C         141.7379  139.9003  168.3486 C.ar    1  UNL1        0.0329
      7 C         143.1443  139.3933  166.0516 C.3     1  UNL1        0.0481
      8 C         142.7050  139.1623  164.6361 C.2     1  UNL1       -0.0420
      9 C         141.2080  139.2482  164.5955 C.2     1  UNL1       -0.0239
     10 C         141.3653  140.7191  171.2230 C.3     1  UNL1        0.2525
     11 O         140.1796  140.3673  170.3744 O.3     1  UNL1       -0.4714
     12 C         143.6047  138.8927  163.4665 C.3     1  UNL1        0.0394
     13 C         143.9945  140.0116  162.5466 C.3     1  UNL1        0.0765
     14 N         144.4022  141.3398  163.1119 N.3     1  UNL1       -0.2700
     15 C         143.4488  142.4970  163.0705 C.3     1  UNL1        0.0897
     16 C         145.7633  141.5107  163.7186 C.3     1  UNL1        0.0897
     17 C         140.3479  139.0795  163.3783 C.3     1  UNL1        0.0730
     18 C         139.5390  140.2341  162.8657 C.ar    1  UNL1        0.0825
     19 C         138.0635  140.2918  163.1293 C.ar    1  UNL1        0.1139
     20 N         137.2546  141.4463  162.6167 N.ar    1  UNL1       -0.2394
     21 C         137.9212  142.5431  161.8404 C.ar    1  UNL1        0.1195
     22 C         139.3967  142.4854  161.5768 C.ar    1  UNL1        0.1191
     23 N         140.2056  141.3309  162.0894 N.ar    1  UNL1       -0.2446
@<TRIPOS>BOND
     1    10    11    1
     2    11     1    1
     3     1     2   ar
     4     2     3   ar
     5     3     4   ar
     6     4     5   ar
     7     5     6   ar
     8     5     7    1
     9     7     8    1
    10     8    12    1
    11    12    13    1
    12    13    14    1
    13    14    15    1
    14    14    16    1
    15     8     9    2
    16     9    17    1
    17    17    18    1
    18    18    19   ar
    19    19    20   ar
    20    20    21   ar
    21    21    22   ar
    22    22    23   ar
    23     6     1   ar
    24    23    18   ar
    25     9     4    1
@<TRIPOS>MOLECULE
*****
 23 25 0 0 0
SMALL
GASTEIGER

@<TRIPOS>ATOM
      1 C         142.5104  139.7581  168.9854 C.ar    1  UNL1        0.1384
      2 C         142.8643  139.1059  167.6819 C.ar    1  UNL1        0.0369
      3 C         142.3973  139.7090  166.3903 C.ar    1  UNL1        0.0025
      4 C         141.5764  140.9644  166.4023 C.ar    1  UNL1       -0.0076
      5 C         141.2225  141.6166  167.7058 C.ar    1  UNL1       -0.0154
      6 C         141.6895  141.0135  168.9974 C.ar    1  UNL1        0.0329
      7 C         140.4059  142.8387  167.4061 C.3     1  UNL1        0.0481
      8 C         140.2552  142.9417  165.9173 C.2     1  UNL1       -0.0420
      9 C         140.9786  141.7833  165.2969 C.2     1  UNL1       -0.0239
     10 C         143.2438  137.6814  170.3636 C.3     1  UNL1        0.2525
     11 O         142.9774  139.1550  170.2770 O.3     1  UNL1       -0.4714
     12 C         139.5116  144.0147  165.1785 C.3     1  UNL1        0.0394
     13 C         138.1494  143.7328  164.6172 C.3     1  UNL1        0.0765
     14 N         138.0119  143.0204  163.3044 N.3     1  UNL1       -0.2700
     15 C         137.3307  141.6854  163.2433 C.3     1  UNL1        0.0897
     16 C         138.5556  143.6429  162.0527 C.3     1  UNL1        0.0897
     17 C         141.0854  141.4945  163.8288 C.3     1  UNL1        0.0730
     18 C         142.2600  142.0044  163.0477 C.ar    1  UNL1        0.0825
     19 C         142.2953  143.4335  162.5933 C.ar    1  UNL1        0.1139
     20 N         143.4700  143.9434  161.8122 N.ar    1  UNL1       -0.2394
     21 C         144.6094  143.0241  161.4853 C.ar    1  UNL1        0.1195
     22 C         144.5741  141.5951  161.9397 C.ar    1  UNL1        0.1191
     23 N         143.3994  141.0852  162.7209 N.ar    1  UNL1       -0.2446
@<TRIPOS>BOND
     1    10    11    1
     2    11     1    1
     3     1     2   ar
     4     2     3   ar
     5     3     4   ar
     6     4     5   ar
     7     5     6   ar
     8     5     7    1
     9     7     8    1
    10     8    12    1
    11    12    13    1
    12    13    14    1
    13    14    15    1
    14    14    16    1
    15     8     9    2
    16     9    17    1
    17    17    18    1
    18    18    19   ar
    19    19    20   ar
    20    20    21   ar
    21    21    22   ar
    22    22    23   ar
    23     6     1   ar
    24    23    18   ar
    25     9     4    1
