@<TRIPOS>MOLECULE
*****
 30 33 0 0 0
SMALL
GASTEIGER

@<TRIPOS>ATOM
      1 N         141.5831  140.2993  167.1463 N.ar    1  UNL1       -0.2915
      2 C         142.6608  139.4385  166.5567 C.ar    1  UNL1        0.1658
      3 N         143.3433  138.7158  167.6800 N.ar    1  UNL1       -0.2282
      4 C         142.6875  139.1298  168.9638 C.ar    1  UNL1        0.0885
      5 C         141.5996  140.1085  168.6340 C.ar    1  UNL1        0.0573
      6 C         137.8600  143.8771  164.0905 C.3     1  UNL1        0.0521
      7 C         138.7908  142.9826  164.8544 C.ar    1  UNL1        0.0595
      8 C         140.0248  143.5515  165.4897 C.ar    1  UNL1        0.0162
      9 C         140.9555  142.6571  166.2536 C.ar    1  UNL1        0.0203
     10 C         140.6523  141.1937  166.3823 C.ar    1  UNL1        0.0842
     11 C         139.4183  140.6248  165.7471 C.ar    1  UNL1        0.1159
     12 N         138.4875  141.5193  164.9832 N.ar    1  UNL1       -0.2466
     13 C         142.9970  139.3211  165.0995 C.ar    1  UNL1        0.1261
     14 N         144.0573  140.1976  164.5015 N.ar    1  UNL1       -0.2399
     15 C         144.3935  140.0802  163.0443 C.ar    1  UNL1        0.0990
     16 C         143.6694  139.0864  162.1853 C.ar    1  UNL1        0.0215
     17 C         142.6091  138.2100  162.7833 C.ar    1  UNL1        0.0146
     18 C         142.2730  138.3274  164.2404 C.ar    1  UNL1        0.0783
     19 CL        141.2126  137.4509  164.8384 Cl      1  UNL1       -0.0806
     20 C         140.6882  140.7786  169.6190 C.3     1  UNL1        0.0400
     21 C         139.2615  140.3328  169.7445 C.3     1  UNL1        0.0063
     22 C         141.2035  141.8948  170.4786 C.3     1  UNL1        0.0063
     23 C         143.0549  138.6496  170.3366 C.3     1  UNL1        0.1163
     24 N         143.1900  137.1802  170.6059 N.3     1  UNL1       -0.2935
     25 H         143.2091  136.7150  169.6983 H       1  UNL1        0.1236
     26 C         144.3659  136.6649  171.3814 C.3     1  UNL1        0.0543
     27 C         144.6932  135.2227  171.6324 C.3     1  UNL1        0.0157
     28 C         145.9506  135.1678  172.4483 C.3     1  UNL1        0.0014
     29 C         146.4007  136.5762  172.7016 C.3     1  UNL1        0.0014
     30 C         145.4212  137.5014  172.0422 C.3     1  UNL1        0.0157
@<TRIPOS>BOND
     1     6     7    1
     2     7     8   ar
     3     8     9   ar
     4     9    10   ar
     5    10     1    1
     6     1     2   ar
     7     2    13    1
     8    13    14   ar
     9    14    15   ar
    10    15    16   ar
    11    16    17   ar
    12    17    18   ar
    13    18    19    1
    14     2     3   ar
    15     3     4   ar
    16     4    23    1
    17    23    24    1
    18    24    26    1
    19    26    27    1
    20    27    28    1
    21    28    29    1
    22    29    30    1
    23     4     5   ar
    24     5    20    1
    25    20    21    1
    26    20    22    1
    27    10    11   ar
    28    11    12   ar
    29    12     7   ar
    30     5     1   ar
    31    18    13   ar
    32    30    26    1
    33    24    25    1
@<TRIPOS>MOLECULE
*****
 30 33 0 0 0
SMALL
GASTEIGER

@<TRIPOS>ATOM
      1 N         140.3938  140.8612  164.9215 N.ar    1  UNL1       -0.2915
      2 C         140.6387  141.7839  163.7644 C.ar    1  UNL1        0.1658
      3 N         139.7132  141.3884  162.6522 N.ar    1  UNL1       -0.2282
      4 C         138.8963  140.2214  163.1218 C.ar    1  UNL1        0.0885
      5 C         139.3169  139.8956  164.5243 C.ar    1  UNL1        0.0573
      6 C         143.2246  141.0077  170.2097 C.3     1  UNL1        0.0521
      7 C         142.5169  140.9711  168.8876 C.ar    1  UNL1        0.0595
      8 C         141.5544  142.0617  168.5217 C.ar    1  UNL1        0.0162
      9 C         140.8467  142.0251  167.1997 C.ar    1  UNL1        0.0203
     10 C         141.1015  140.8978  166.2435 C.ar    1  UNL1        0.0842
     11 C         142.0640  139.8072  166.6094 C.ar    1  UNL1        0.1159
     12 N         142.7717  139.8438  167.9315 N.ar    1  UNL1       -0.2466
     13 C         141.6344  142.9051  163.7263 C.ar    1  UNL1        0.1261
     14 N         143.0888  142.6096  163.5083 N.ar    1  UNL1       -0.2399
     15 C         144.0845  143.7308  163.4702 C.ar    1  UNL1        0.0990
     16 C         143.6258  145.1476  163.6500 C.ar    1  UNL1        0.0215
     17 C         142.1715  145.4431  163.8679 C.ar    1  UNL1        0.0146
     18 C         141.1758  144.3219  163.9061 C.ar    1  UNL1        0.0783
     19 CL        139.7214  144.6175  164.1240 Cl      1  UNL1       -0.0806
     20 C         138.7586  138.7969  165.3795 C.3     1  UNL1        0.0400
     21 C         139.0231  137.3634  165.0261 C.3     1  UNL1        0.0063
     22 C         137.9356  139.1319  166.5881 C.3     1  UNL1        0.0063
     23 C         137.8435  139.5058  162.3283 C.3     1  UNL1        0.1163
     24 N         138.2334  138.4086  161.3827 N.3     1  UNL1       -0.2935
     25 H         137.6155  138.4829  160.5746 H       1  UNL1        0.1236
     26 C         139.6345  138.3390  160.8515 C.3     1  UNL1        0.0543
     27 C         140.0675  138.6872  159.4582 C.3     1  UNL1        0.0157
     28 C         141.5492  138.4724  159.3660 C.3     1  UNL1        0.0014
     29 C         142.0319  137.9914  160.7023 C.3     1  UNL1        0.0014
     30 C         140.8485  137.9090  161.6204 C.3     1  UNL1        0.0157
@<TRIPOS>BOND
     1     6     7    1
     2     7     8   ar
     3     8     9   ar
     4     9    10   ar
     5    10     1    1
     6     1     2   ar
     7     2    13    1
     8    13    14   ar
     9    14    15   ar
    10    15    16   ar
    11    16    17   ar
    12    17    18   ar
    13    18    19    1
    14     2     3   ar
    15     3     4   ar
    16     4    23    1
    17    23    24    1
    18    24    26    1
    19    26    27    1
    20    27    28    1
    21    28    29    1
    22    29    30    1
    23     4     5   ar
    24     5    20    1
    25    20    21    1
    26    20    22    1
    27    10    11   ar
    28    11    12   ar
    29    12     7   ar
    30     5     1   ar
    31    18    13   ar
    32    30    26    1
    33    24    25    1
@<TRIPOS>MOLECULE
*****
 30 33 0 0 0
SMALL
GASTEIGER

@<TRIPOS>ATOM
      1 N         140.9560  139.7623  165.2119 N.ar    1  UNL1       -0.2915
      2 C         141.6360  140.3515  164.0117 C.ar    1  UNL1        0.1658
      3 N         140.7459  140.1383  162.8233 N.ar    1  UNL1       -0.2282
      4 C         139.5157  139.4174  163.2890 C.ar    1  UNL1        0.0885
      5 C         139.6455  139.1851  164.7652 C.ar    1  UNL1        0.0573
      6 C         143.1008  139.7219  170.8153 C.3     1  UNL1        0.0521
      7 C         142.5646  139.7320  169.4144 C.ar    1  UNL1        0.0595
      8 C         141.3932  140.6017  169.0660 C.ar    1  UNL1        0.0162
      9 C         140.8570  140.6118  167.6651 C.ar    1  UNL1        0.0203
     10 C         141.4922  139.7522  166.6127 C.ar    1  UNL1        0.0842
     11 C         142.6636  138.8825  166.9611 C.ar    1  UNL1        0.1159
     12 N         143.1998  138.8724  168.3620 N.ar    1  UNL1       -0.2466
     13 C         142.9718  141.0339  164.0017 C.ar    1  UNL1        0.1261
     14 N         143.0836  142.4696  164.4218 N.ar    1  UNL1       -0.2399
     15 C         144.4193  143.1521  164.4118 C.ar    1  UNL1        0.0990
     16 C         145.6432  142.3990  163.9816 C.ar    1  UNL1        0.0215
     17 C         145.5313  140.9634  163.5614 C.ar    1  UNL1        0.0146
     18 C         144.1956  140.2809  163.5715 C.ar    1  UNL1        0.0783
     19 CL        144.0838  138.8453  163.1513 Cl      1  UNL1       -0.0806
     20 C         138.6412  138.4963  165.6410 C.3     1  UNL1        0.0400
     21 C         137.8077  139.2955  166.5982 C.3     1  UNL1        0.0063
     22 C         138.4704  137.0082  165.5595 C.3     1  UNL1        0.0063
     23 C         138.3588  139.0019  162.4295 C.3     1  UNL1        0.1163
     24 N         137.3638  140.0241  161.9656 N.3     1  UNL1       -0.2935
     25 H         136.4587  139.7480  162.3464 H       1  UNL1        0.1236
     26 C         137.5569  141.4703  162.3134 C.3     1  UNL1        0.0543
     27 C         137.2445  142.1089  163.6342 C.3     1  UNL1        0.0157
     28 C         137.5908  143.5652  163.5385 C.3     1  UNL1        0.0014
     29 C         138.1173  143.8267  162.1585 C.3     1  UNL1        0.0014
     30 C         138.0963  142.5320  161.4013 C.3     1  UNL1        0.0157
@<TRIPOS>BOND
     1     6     7    1
     2     7     8   ar
     3     8     9   ar
     4     9    10   ar
     5    10     1    1
     6     1     2   ar
     7     2    13    1
     8    13    14   ar
     9    14    15   ar
    10    15    16   ar
    11    16    17   ar
    12    17    18   ar
    13    18    19    1
    14     2     3   ar
    15     3     4   ar
    16     4    23    1
    17    23    24    1
    18    24    26    1
    19    26    27    1
    20    27    28    1
    21    28    29    1
    22    29    30    1
    23     4     5   ar
    24     5    20    1
    25    20    21    1
    26    20    22    1
    27    10    11   ar
    28    11    12   ar
    29    12     7   ar
    30     5     1   ar
    31    18    13   ar
    32    30    26    1
    33    24    25    1
@<TRIPOS>MOLECULE
*****
 30 33 0 0 0
SMALL
GASTEIGER

@<TRIPOS>ATOM
      1 N         139.9908  140.5392  163.8837 N.ar    1  UNL1       -0.2915
      2 C         140.1305  141.9490  164.3766 C.ar    1  UNL1        0.1658
      3 N         140.1741  141.9139  165.8755 N.ar    1  UNL1       -0.2282
      4 C         140.0613  140.4823  166.3091 C.ar    1  UNL1        0.0885
      5 C         139.9481  139.6328  165.0780 C.ar    1  UNL1        0.0573
      6 C         139.6611  138.8266  158.1428 C.3     1  UNL1        0.0521
      7 C         139.7435  139.2548  159.5780 C.ar    1  UNL1        0.0595
      8 C         138.4949  139.3584  160.4026 C.ar    1  UNL1        0.0162
      9 C         138.5773  139.7866  161.8379 C.ar    1  UNL1        0.0203
     10 C         139.9084  140.1111  162.4484 C.ar    1  UNL1        0.0842
     11 C         141.1570  140.0074  161.6238 C.ar    1  UNL1        0.1159
     12 N         141.0746  139.5792  160.1886 N.ar    1  UNL1       -0.2466
     13 C         140.2122  143.1782  163.5208 C.ar    1  UNL1        0.1261
     14 N         141.4951  143.5229  162.8238 N.ar    1  UNL1       -0.2399
     15 C         141.5768  144.7521  161.9680 C.ar    1  UNL1        0.0990
     16 C         140.3758  145.6366  161.8091 C.ar    1  UNL1        0.0215
     17 C         139.0931  145.2919  162.5061 C.ar    1  UNL1        0.0146
     18 C         139.0113  144.0627  163.3619 C.ar    1  UNL1        0.0783
     19 CL        137.7284  143.7181  164.0588 Cl      1  UNL1       -0.0806
     20 C         139.8154  138.1390  165.0469 C.3     1  UNL1        0.0400
     21 C         138.5307  137.4911  165.4706 C.3     1  UNL1        0.0063
     22 C         140.9676  137.2930  164.5919 C.3     1  UNL1        0.0063
     23 C         140.0618  139.9872  167.7250 C.3     1  UNL1        0.1163
     24 N         140.0184  140.9652  168.8615 N.3     1  UNL1       -0.2935
     25 H         139.6238  140.4700  169.6612 H       1  UNL1        0.1236
     26 C         141.2820  141.6185  169.3373 C.3     1  UNL1        0.0543
     27 C         141.3744  142.8976  170.1153 C.3     1  UNL1        0.0157
     28 C         142.8246  143.1771  170.3775 C.3     1  UNL1        0.0014
     29 C         143.6286  142.0706  169.7614 C.3     1  UNL1        0.0014
     30 C         142.6752  141.1074  169.1185 C.3     1  UNL1        0.0157
@<TRIPOS>BOND
     1     6     7    1
     2     7     8   ar
     3     8     9   ar
     4     9    10   ar
     5    10     1    1
     6     1     2   ar
     7     2    13    1
     8    13    14   ar
     9    14    15   ar
    10    15    16   ar
    11    16    17   ar
    12    17    18   ar
    13    18    19    1
    14     2     3   ar
    15     3     4   ar
    16     4    23    1
    17    23    24    1
    18    24    26    1
    19    26    27    1
    20    27    28    1
    21    28    29    1
    22    29    30    1
    23     4     5   ar
    24     5    20    1
    25    20    21    1
    26    20    22    1
    27    10    11   ar
    28    11    12   ar
    29    12     7   ar
    30     5     1   ar
    31    18    13   ar
    32    30    26    1
    33    24    25    1
@<TRIPOS>MOLECULE
*****
 30 33 0 0 0
SMALL
GASTEIGER

@<TRIPOS>ATOM
      1 N         141.4030  140.6121  160.8424 N.ar    1  UNL1       -0.2915
      2 C         141.6563  140.7908  162.3101 C.ar    1  UNL1        0.1658
      3 N         140.3655  140.5514  163.0357 N.ar    1  UNL1       -0.2282
      4 C         139.3145  140.2247  162.0166 C.ar    1  UNL1        0.0885
      5 C         139.9557  140.2623  160.6611 C.ar    1  UNL1        0.0573
      6 C         145.4658  141.1946  156.4658 C.3     1  UNL1        0.0521
      7 C         144.4501  141.0490  157.5600 C.ar    1  UNL1        0.0595
      8 C         143.6332  142.2322  157.9873 C.ar    1  UNL1        0.0162
      9 C         142.6175  142.0866  159.0815 C.ar    1  UNL1        0.0203
     10 C         142.4187  140.7578  159.7483 C.ar    1  UNL1        0.0842
     11 C         143.2356  139.5746  159.3209 C.ar    1  UNL1        0.1159
     12 N         144.2513  139.7202  158.2268 N.ar    1  UNL1       -0.2466
     13 C         142.9697  141.1465  162.9412 C.ar    1  UNL1        0.1261
     14 N         143.2885  142.5787  163.2533 N.ar    1  UNL1       -0.2399
     15 C         144.6019  142.9343  163.8845 C.ar    1  UNL1        0.0990
     16 C         145.5966  141.8579  164.2036 C.ar    1  UNL1        0.0215
     17 C         145.2778  140.4258  163.8915 C.ar    1  UNL1        0.0146
     18 C         143.9644  140.0701  163.2604 C.ar    1  UNL1        0.0783
     19 CL        143.6457  138.6379  162.9483 Cl      1  UNL1       -0.0806
     20 C         139.2700  139.9966  159.3537 C.3     1  UNL1        0.0400
     21 C         138.3300  141.0146  158.7794 C.3     1  UNL1        0.0063
     22 C         139.5243  138.7128  158.6207 C.3     1  UNL1        0.0063
     23 C         137.8750  139.9149  162.3027 C.3     1  UNL1        0.1163
     24 N         136.9600  140.9944  162.8003 N.3     1  UNL1       -0.2935
     25 H         136.5015  140.6300  163.6354 H       1  UNL1        0.1236
     26 C         137.5151  142.3397  163.1632 C.3     1  UNL1        0.0543
     27 C         137.7495  142.8509  164.5538 C.3     1  UNL1        0.0157
     28 C         138.3126  144.2372  164.4494 C.3     1  UNL1        0.0014
     29 C         138.4263  144.5829  162.9941 C.3     1  UNL1        0.0014
     30 C         137.9334  143.4101  162.1993 C.3     1  UNL1        0.0157
@<TRIPOS>BOND
     1     6     7    1
     2     7     8   ar
     3     8     9   ar
     4     9    10   ar
     5    10     1    1
     6     1     2   ar
     7     2    13    1
     8    13    14   ar
     9    14    15   ar
    10    15    16   ar
    11    16    17   ar
    12    17    18   ar
    13    18    19    1
    14     2     3   ar
    15     3     4   ar
    16     4    23    1
    17    23    24    1
    18    24    26    1
    19    26    27    1
    20    27    28    1
    21    28    29    1
    22    29    30    1
    23     4     5   ar
    24     5    20    1
    25    20    21    1
    26    20    22    1
    27    10    11   ar
    28    11    12   ar
    29    12     7   ar
    30     5     1   ar
    31    18    13   ar
    32    30    26    1
    33    24    25    1
@<TRIPOS>MOLECULE
*****
 30 33 0 0 0
SMALL
GASTEIGER

@<TRIPOS>ATOM
      1 N         141.1964  140.8443  164.2427 N.ar    1  UNL1       -0.2915
      2 C         140.4064  142.0360  164.6963 C.ar    1  UNL1        0.1658
      3 N         139.9323  141.7729  166.0949 N.ar    1  UNL1       -0.2282
      4 C         140.4294  140.4186  166.5057 C.ar    1  UNL1        0.0885
      5 C         141.2106  139.8447  165.3609 C.ar    1  UNL1        0.0573
      6 C         143.8361  140.1908  158.8943 C.3     1  UNL1        0.0521
      7 C         143.1762  140.3542  160.2314 C.ar    1  UNL1        0.0595
      8 C         143.9981  140.7079  161.4352 C.ar    1  UNL1        0.0162
      9 C         143.3382  140.8713  162.7723 C.ar    1  UNL1        0.0203
     10 C         141.8563  140.6810  162.9056 C.ar    1  UNL1        0.0842
     11 C         141.0344  140.3273  161.7017 C.ar    1  UNL1        0.1159
     12 N         141.6943  140.1639  160.3646 N.ar    1  UNL1       -0.2466
     13 C         140.1375  143.2736  163.8924 C.ar    1  UNL1        0.1261
     14 N         141.2590  144.2157  163.5682 N.ar    1  UNL1       -0.2399
     15 C         140.9901  145.4532  162.7643 C.ar    1  UNL1        0.0990
     16 C         139.6000  145.7487  162.2846 C.ar    1  UNL1        0.0215
     17 C         138.4786  144.8067  162.6088 C.ar    1  UNL1        0.0146
     18 C         138.7475  143.5691  163.4127 C.ar    1  UNL1        0.0783
     19 CL        137.6260  142.6271  163.7369 Cl      1  UNL1       -0.0806
     20 C         141.8873  138.5062  165.3385 C.3     1  UNL1        0.0400
     21 C         141.2347  137.3474  164.6448 C.3     1  UNL1        0.0063
     22 C         143.2167  138.3265  166.0098 C.3     1  UNL1        0.0063
     23 C         140.1877  139.7547  167.8289 C.3     1  UNL1        0.1163
     24 N         140.1694  140.5726  169.0861 N.3     1  UNL1       -0.2935
     25 H         139.9920  139.9265  169.8552 H       1  UNL1        0.1236
     26 C         141.3710  141.3839  169.4706 C.3     1  UNL1        0.0543
     27 C         141.3519  142.7120  170.1675 C.3     1  UNL1        0.0157
     28 C         142.7719  143.1585  170.3533 C.3     1  UNL1        0.0014
     29 C         143.6686  142.1062  169.7711 C.3     1  UNL1        0.0014
     30 C         142.8027  141.0095  169.2256 C.3     1  UNL1        0.0157
@<TRIPOS>BOND
     1     6     7    1
     2     7     8   ar
     3     8     9   ar
     4     9    10   ar
     5    10     1    1
     6     1     2   ar
     7     2    13    1
     8    13    14   ar
     9    14    15   ar
    10    15    16   ar
    11    16    17   ar
    12    17    18   ar
    13    18    19    1
    14     2     3   ar
    15     3     4   ar
    16     4    23    1
    17    23    24    1
    18    24    26    1
    19    26    27    1
    20    27    28    1
    21    28    29    1
    22    29    30    1
    23     4     5   ar
    24     5    20    1
    25    20    21    1
    26    20    22    1
    27    10    11   ar
    28    11    12   ar
    29    12     7   ar
    30     5     1   ar
    31    18    13   ar
    32    30    26    1
    33    24    25    1
@<TRIPOS>MOLECULE
*****
 30 33 0 0 0
SMALL
GASTEIGER

@<TRIPOS>ATOM
      1 N         140.6076  142.4954  164.6279 N.ar    1  UNL1       -0.2915
      2 C         141.7246  142.1899  163.6745 C.ar    1  UNL1        0.1658
      3 N         141.5154  143.0111  162.4369 N.ar    1  UNL1       -0.2282
      4 C         140.2691  143.8242  162.6253 C.ar    1  UNL1        0.0885
      5 C         139.7080  143.5054  163.9794 C.ar    1  UNL1        0.0573
      6 C         139.8677  140.0982  170.0782 C.3     1  UNL1        0.0521
      7 C         140.0527  140.6975  168.7156 C.ar    1  UNL1        0.0595
      8 C         139.4715  140.0171  167.5118 C.ar    1  UNL1        0.0162
      9 C         139.6565  140.6164  166.1492 C.ar    1  UNL1        0.0203
     10 C         140.4226  141.8961  165.9905 C.ar    1  UNL1        0.0842
     11 C         141.0038  142.5766  167.1943 C.ar    1  UNL1        0.1159
     12 N         140.8188  141.9773  168.5569 N.ar    1  UNL1       -0.2466
     13 C         142.8529  141.2315  163.9164 C.ar    1  UNL1        0.1261
     14 N         142.5663  139.7751  164.1334 N.ar    1  UNL1       -0.2399
     15 C         143.6946  138.8167  164.3753 C.ar    1  UNL1        0.0990
     16 C         145.1093  139.3145  164.4001 C.ar    1  UNL1        0.0215
     17 C         145.3958  140.7708  164.1831 C.ar    1  UNL1        0.0146
     18 C         144.2676  141.7293  163.9413 C.ar    1  UNL1        0.0783
     19 CL        144.5542  143.1856  163.7243 Cl      1  UNL1       -0.0806
     20 C         138.4654  144.0935  164.5796 C.3     1  UNL1        0.0400
     21 C         137.1182  143.6988  164.0516 C.3     1  UNL1        0.0063
     22 C         138.5702  145.0764  165.7080 C.3     1  UNL1        0.0063
     23 C         139.6861  144.7869  161.6337 C.3     1  UNL1        0.1163
     24 N         139.4565  144.3557  160.2154 N.3     1  UNL1       -0.2935
     25 H         138.5663  144.7603  159.9251 H       1  UNL1        0.1236
     26 C         140.4574  144.7046  159.1542 C.3     1  UNL1        0.0543
     27 C         140.3348  145.8205  158.1593 C.3     1  UNL1        0.0157
     28 C         141.5583  145.8045  157.2916 C.3     1  UNL1        0.0014
     29 C         142.4371  144.6786  157.7503 C.3     1  UNL1        0.0014
     30 C         141.7566  143.9989  158.9014 C.3     1  UNL1        0.0157
@<TRIPOS>BOND
     1     6     7    1
     2     7     8   ar
     3     8     9   ar
     4     9    10   ar
     5    10     1    1
     6     1     2   ar
     7     2    13    1
     8    13    14   ar
     9    14    15   ar
    10    15    16   ar
    11    16    17   ar
    12    17    18   ar
    13    18    19    1
    14     2     3   ar
    15     3     4   ar
    16     4    23    1
    17    23    24    1
    18    24    26    1
    19    26    27    1
    20    27    28    1
    21    28    29    1
    22    29    30    1
    23     4     5   ar
    24     5    20    1
    25    20    21    1
    26    20    22    1
    27    10    11   ar
    28    11    12   ar
    29    12     7   ar
    30     5     1   ar
    31    18    13   ar
    32    30    26    1
    33    24    25    1
@<TRIPOS>MOLECULE
*****
 30 33 0 0 0
SMALL
GASTEIGER

@<TRIPOS>ATOM
      1 N         141.0213  140.4491  164.4064 N.ar    1  UNL1       -0.2915
      2 C         141.1024  141.7860  165.0819 C.ar    1  UNL1        0.1658
      3 N         140.4495  141.6661  166.4270 N.ar    1  UNL1       -0.2282
      4 C         139.9649  140.2551  166.5829 C.ar    1  UNL1        0.0885
      5 C         140.3183  139.5030  165.3341 C.ar    1  UNL1        0.0573
      6 C         143.1374  139.1196  158.9516 C.3     1  UNL1        0.0521
      7 C         142.6084  139.4520  160.3153 C.ar    1  UNL1        0.0595
      8 C         143.5381  139.4898  161.4918 C.ar    1  UNL1        0.0162
      9 C         143.0091  139.8221  162.8555 C.ar    1  UNL1        0.0203
     10 C         141.5503  140.1167  163.0427 C.ar    1  UNL1        0.0842
     11 C         140.6206  140.0790  161.8663 C.ar    1  UNL1        0.1159
     12 N         141.1496  139.7466  160.5026 N.ar    1  UNL1       -0.2466
     13 C         141.7267  143.0252  164.5122 C.ar    1  UNL1        0.1261
     14 N         140.8803  144.0209  163.7757 N.ar    1  UNL1       -0.2399
     15 C         141.5046  145.2602  163.2061 C.ar    1  UNL1        0.0990
     16 C         142.9752  145.5037  163.3728 C.ar    1  UNL1        0.0215
     17 C         143.8216  144.5081  164.1092 C.ar    1  UNL1        0.0146
     18 C         143.1973  143.2688  164.6789 C.ar    1  UNL1        0.0783
     19 CL        144.0438  142.2732  165.4153 Cl      1  UNL1       -0.0806
     20 C         140.0210  138.0583  165.0610 C.3     1  UNL1        0.0400
     21 C         138.6161  137.5464  165.1792 C.3     1  UNL1        0.0063
     22 C         141.1287  137.1255  164.6698 C.3     1  UNL1        0.0063
     23 C         139.2521  139.6946  167.7778 C.3     1  UNL1        0.1163
     24 N         139.8457  139.8504  169.1465 N.3     1  UNL1       -0.2935
     25 H         140.4701  139.0566  169.2889 H       1  UNL1        0.1236
     26 C         140.6281  141.0835  169.4887 C.3     1  UNL1        0.0543
     27 C         140.0539  142.4326  169.8053 C.3     1  UNL1        0.0157
     28 C         141.1931  143.3670  170.0866 C.3     1  UNL1        0.0014
     29 C         142.4715  142.5954  169.9438 C.3     1  UNL1        0.0014
     30 C         142.1223  141.1841  169.5743 C.3     1  UNL1        0.0157
@<TRIPOS>BOND
     1     6     7    1
     2     7     8   ar
     3     8     9   ar
     4     9    10   ar
     5    10     1    1
     6     1     2   ar
     7     2    13    1
     8    13    14   ar
     9    14    15   ar
    10    15    16   ar
    11    16    17   ar
    12    17    18   ar
    13    18    19    1
    14     2     3   ar
    15     3     4   ar
    16     4    23    1
    17    23    24    1
    18    24    26    1
    19    26    27    1
    20    27    28    1
    21    28    29    1
    22    29    30    1
    23     4     5   ar
    24     5    20    1
    25    20    21    1
    26    20    22    1
    27    10    11   ar
    28    11    12   ar
    29    12     7   ar
    30     5     1   ar
    31    18    13   ar
    32    30    26    1
    33    24    25    1
@<TRIPOS>MOLECULE
*****
 30 33 0 0 0
SMALL
GASTEIGER

@<TRIPOS>ATOM
      1 N         140.2403  141.6710  162.7542 N.ar    1  UNL1       -0.2915
      2 C         140.8326  140.2930  162.7334 C.ar    1  UNL1        0.1658
      3 N         140.5595  139.6510  164.0613 N.ar    1  UNL1       -0.2282
      4 C         139.7984  140.6322  164.9028 C.ar    1  UNL1        0.0885
      5 C         139.6011  141.8806  164.0949 C.ar    1  UNL1        0.0573
      6 C         140.3995  145.6463  158.2629 C.3     1  UNL1        0.0521
      7 C         140.3597  144.6525  159.3858 C.ar    1  UNL1        0.0595
      8 C         141.4227  144.6734  160.4439 C.ar    1  UNL1        0.0162
      9 C         141.3828  143.6795  161.5667 C.ar    1  UNL1        0.0203
     10 C         140.2801  142.6648  161.6314 C.ar    1  UNL1        0.0842
     11 C         139.2171  142.6440  160.5733 C.ar    1  UNL1        0.1159
     12 N         139.2569  143.6378  159.4505 N.ar    1  UNL1       -0.2466
     13 C         141.5687  139.6670  161.5862 C.ar    1  UNL1        0.1261
     14 N         140.8052  139.0776  160.4373 N.ar    1  UNL1       -0.2399
     15 C         141.5414  138.4515  159.2900 C.ar    1  UNL1        0.0990
     16 C         143.0409  138.4148  159.2916 C.ar    1  UNL1        0.0215
     17 C         143.8043  139.0042  160.4404 C.ar    1  UNL1        0.0146
     18 C         143.0682  139.6303  161.5877 C.ar    1  UNL1        0.0783
     19 CL        143.8317  140.2197  162.7365 Cl      1  UNL1       -0.0806
     20 C         138.8896  143.1208  164.5483 C.3     1  UNL1        0.0400
     21 C         139.6662  144.2520  165.1541 C.3     1  UNL1        0.0063
     22 C         137.4013  143.2298  164.3957 C.3     1  UNL1        0.0063
     23 C         139.3189  140.4049  166.3057 C.3     1  UNL1        0.1163
     24 N         140.2975  140.4074  167.4426 N.3     1  UNL1       -0.2935
     25 H         141.2289  140.4531  167.0292 H       1  UNL1        0.1236
     26 C         140.2331  141.4838  168.4851 C.3     1  UNL1        0.0543
     27 C         139.6663  141.3406  169.8665 C.3     1  UNL1        0.0157
     28 C         139.8071  142.6608  170.5646 C.3     1  UNL1        0.0014
     29 C         140.4610  143.6200  169.6145 C.3     1  UNL1        0.0014
     30 C         140.7242  142.8926  168.3294 C.3     1  UNL1        0.0157
@<TRIPOS>BOND
     1     6     7    1
     2     7     8   ar
     3     8     9   ar
     4     9    10   ar
     5    10     1    1
     6     1     2   ar
     7     2    13    1
     8    13    14   ar
     9    14    15   ar
    10    15    16   ar
    11    16    17   ar
    12    17    18   ar
    13    18    19    1
    14     2     3   ar
    15     3     4   ar
    16     4    23    1
    17    23    24    1
    18    24    26    1
    19    26    27    1
    20    27    28    1
    21    28    29    1
    22    29    30    1
    23     4     5   ar
    24     5    20    1
    25    20    21    1
    26    20    22    1
    27    10    11   ar
    28    11    12   ar
    29    12     7   ar
    30     5     1   ar
    31    18    13   ar
    32    30    26    1
    33    24    25    1
