@<TRIPOS>MOLECULE
*****
 33 35 0 0 0
SMALL
GASTEIGER

@<TRIPOS>ATOM
      1 N         141.2495  138.4322  159.3240 N.ar    1  UNL1       -0.2480
      2 C         142.1737  138.9883  160.3665 C.ar    1  UNL1        0.0966
      3 C         141.4111  139.0928  161.6539 C.ar    1  UNL1        0.0393
      4 C         141.8072  139.5721  163.0190 C.ar    1  UNL1        0.0175
      5 C         140.8076  139.5599  164.1374 C.ar    1  UNL1        0.0488
      6 C         139.4121  139.0685  163.8907 C.ar    1  UNL1        0.0168
      7 C         139.0160  138.5892  162.5255 C.ar    1  UNL1        0.0201
      8 C         140.0155  138.6014  161.4072 C.ar    1  UNL1        0.1022
      9 N         139.9157  138.1932  159.9673 N.ar    1  UNL1       -0.1692
     10 C         138.4125  139.0563  165.0090 C.3     1  UNL1        0.1083
     11 C         138.7962  137.6437  165.3366 C.3     1  UNL1        0.0339
     12 C         138.0288  140.4688  164.6815 C.3     1  UNL1        0.0339
     13 O         137.4130  139.0441  166.1274 O.3     1  UNL1       -0.3826
     14 H         137.4315  138.1802  166.5681 H       1  UNL1        0.2107
     15 N         141.2037  140.0391  165.5025 N.am    1  UNL1       -0.2793
     16 C         141.2711  141.5095  165.7908 C.2     1  UNL1        0.2672
     17 O         140.9425  142.5008  164.7141 O.2     1  UNL1       -0.2682
     18 H         141.4194  139.3885  166.2092 H       1  UNL1        0.1552
     19 C         141.6672  141.9887  167.1559 C.ar    1  UNL1        0.1347
     20 C         143.1158  142.0411  167.5413 C.ar    1  UNL1        0.0238
     21 C         143.5119  142.5204  168.9065 C.ar    1  UNL1        0.0032
     22 C         142.4592  142.9472  169.8861 C.ar    1  UNL1        0.0231
     23 C         141.0106  142.8948  169.5007 C.ar    1  UNL1        0.1527
     24 N         140.6145  142.4156  168.1356 N.ar    1  UNL1       -0.2368
     25 C         139.9579  143.3217  170.4804 C.3     1  UNL1        0.4348
     26 F         138.9053  143.7484  171.4601 F       1  UNL1       -0.1644
     27 F         140.3189  144.7580  170.2426 F       1  UNL1       -0.1644
     28 F         139.5969  141.8853  170.7183 F       1  UNL1       -0.1644
     29 C         141.5979  138.1626  157.8902 C.3     1  UNL1        0.1448
     30 C         142.6863  137.1869  157.5535 C.3     1  UNL1        0.0988
     31 C         142.9758  134.7046  156.8433 C.3     1  UNL1        0.0897
     32 N         142.4222  136.0742  156.5829 N.3     1  UNL1       -0.2686
     33 C         141.6046  136.3311  155.3518 C.3     1  UNL1        0.0897
@<TRIPOS>BOND
     1    31    32    1
     2    32    33    1
     3    32    30    1
     4    30    29    1
     5    29     1    1
     6     1     2   ar
     7     2     3   ar
     8     3     4   ar
     9     4     5   ar
    10     5    15    1
    11    15    16   am
    12    16    17    2
    13    16    19    1
    14    19    20   ar
    15    20    21   ar
    16    21    22   ar
    17    22    23   ar
    18    23    25    1
    19    25    26    1
    20    25    27    1
    21    25    28    1
    22    23    24   ar
    23     5     6   ar
    24     6    10    1
    25    10    11    1
    26    10    12    1
    27    10    13    1
    28     6     7   ar
    29     7     8   ar
    30     8     9   ar
    31     9     1   ar
    32     8     3   ar
    33    24    19   ar
    34    15    18    1
    35    13    14    1
@<TRIPOS>MOLECULE
*****
 33 35 0 0 0
SMALL
GASTEIGER

@<TRIPOS>ATOM
      1 N         139.8947  145.4622  156.7545 N.ar    1  UNL1       -0.2480
      2 C         139.7994  144.0206  157.1577 C.ar    1  UNL1        0.0966
      3 C         139.9442  143.9457  158.6488 C.ar    1  UNL1        0.0393
      4 C         139.9317  142.7871  159.6015 C.ar    1  UNL1        0.0175
      5 C         140.1040  143.0240  161.0727 C.ar    1  UNL1        0.0488
      6 C         140.2888  144.4194  161.5911 C.ar    1  UNL1        0.0168
      7 C         140.3013  145.5779  160.6383 C.ar    1  UNL1        0.0201
      8 C         140.1290  145.3410  159.1672 C.ar    1  UNL1        0.1022
      9 N         140.0984  146.2783  157.9965 N.ar    1  UNL1       -0.1692
     10 C         140.4610  144.6562  163.0622 C.3     1  UNL1        0.1083
     11 C         141.9448  144.4933  162.9147 C.3     1  UNL1        0.0339
     12 C         138.9773  144.8192  163.2097 C.3     1  UNL1        0.0339
     13 O         140.6333  144.8931  164.5333 O.3     1  UNL1       -0.3826
     14 H         141.5751  144.8448  164.7605 H       1  UNL1        0.2107
     15 N         140.0915  141.8655  162.0254 N.am    1  UNL1       -0.2793
     16 C         138.7876  141.2575  162.4498 C.2     1  UNL1        0.2672
     17 O         137.4961  141.8081  161.9216 O.2     1  UNL1       -0.2682
     18 H         140.9391  141.5041  162.3721 H       1  UNL1        0.1552
     19 C         138.7750  140.0990  163.4025 C.ar    1  UNL1        0.1347
     20 C         138.9121  138.6987  162.8824 C.ar    1  UNL1        0.0238
     21 C         138.8995  137.5402  163.8351 C.ar    1  UNL1        0.0032
     22 C         138.7500  137.7819  165.3079 C.ar    1  UNL1        0.0231
     23 C         138.6130  139.1822  165.8280 C.ar    1  UNL1        0.1527
     24 N         138.6255  140.3407  164.8754 N.ar    1  UNL1       -0.2368
     25 C         138.4635  139.4239  167.3009 C.3     1  UNL1        0.4348
     26 F         138.3139  139.6656  168.7737 F       1  UNL1       -0.1644
     27 F         139.5029  140.5030  167.2294 F       1  UNL1       -0.1644
     28 F         137.4241  138.3448  167.3724 F       1  UNL1       -0.1644
     29 C         139.8024  145.9943  155.3551 C.3     1  UNL1        0.1448
     30 C         138.7845  147.0428  155.0170 C.3     1  UNL1        0.0988
     31 C         140.1853  148.9507  153.9457 C.3     1  UNL1        0.0897
     32 N         139.1851  148.4873  154.9630 N.3     1  UNL1       -0.2686
     33 C         138.5855  149.4684  155.9262 C.3     1  UNL1        0.0897
@<TRIPOS>BOND
     1    31    32    1
     2    32    33    1
     3    32    30    1
     4    30    29    1
     5    29     1    1
     6     1     2   ar
     7     2     3   ar
     8     3     4   ar
     9     4     5   ar
    10     5    15    1
    11    15    16   am
    12    16    17    2
    13    16    19    1
    14    19    20   ar
    15    20    21   ar
    16    21    22   ar
    17    22    23   ar
    18    23    25    1
    19    25    26    1
    20    25    27    1
    21    25    28    1
    22    23    24   ar
    23     5     6   ar
    24     6    10    1
    25    10    11    1
    26    10    12    1
    27    10    13    1
    28     6     7   ar
    29     7     8   ar
    30     8     9   ar
    31     9     1   ar
    32     8     3   ar
    33    24    19   ar
    34    15    18    1
    35    13    14    1
@<TRIPOS>MOLECULE
*****
 33 35 0 0 0
SMALL
GASTEIGER

@<TRIPOS>ATOM
      1 N         140.4249  144.9648  158.8052 N.ar    1  UNL1       -0.2480
      2 C         141.1014  145.3792  160.0782 C.ar    1  UNL1        0.0966
      3 C         140.5471  144.5409  161.1918 C.ar    1  UNL1        0.0393
      4 C         140.8387  144.5063  162.6628 C.ar    1  UNL1        0.0175
      5 C         140.1112  143.5390  163.5490 C.ar    1  UNL1        0.0488
      6 C         139.0922  142.6065  162.9642 C.ar    1  UNL1        0.0168
      7 C         138.8007  142.6412  161.4932 C.ar    1  UNL1        0.0201
      8 C         139.5281  143.6084  160.6070 C.ar    1  UNL1        0.1022
      9 N         139.4526  143.8704  159.1320 N.ar    1  UNL1       -0.1692
     10 C         138.3647  141.6393  163.8503 C.3     1  UNL1        0.1083
     11 C         137.4797  142.7491  164.3351 C.3     1  UNL1        0.0339
     12 C         139.2497  140.5295  163.3656 C.3     1  UNL1        0.0339
     13 O         137.6372  140.6721  164.7365 O.3     1  UNL1       -0.3826
     14 H         136.9409  141.1403  165.2231 H       1  UNL1        0.2107
     15 N         140.4027  143.5044  165.0200 N.am    1  UNL1       -0.2793
     16 C         141.4948  142.6218  165.5475 C.2     1  UNL1        0.2672
     17 O         142.2954  141.7738  164.6041 O.2     1  UNL1       -0.2682
     18 H         139.8773  144.0609  165.6392 H       1  UNL1        0.1552
     19 C         141.7864  142.5871  167.0185 C.ar    1  UNL1        0.1347
     20 C         143.1570  142.2174  167.5029 C.ar    1  UNL1        0.0238
     21 C         143.4485  142.1827  168.9740 C.ar    1  UNL1        0.0032
     22 C         142.3694  142.5178  169.9605 C.ar    1  UNL1        0.0231
     23 C         140.9988  142.8875  169.4760 C.ar    1  UNL1        0.1527
     24 N         140.7072  142.9222  168.0051 N.ar    1  UNL1       -0.2368
     25 C         139.9197  143.2226  170.4626 C.3     1  UNL1        0.4348
     26 F         138.8406  143.5576  171.4492 F       1  UNL1       -0.1644
     27 F         140.2258  144.6822  170.3018 F       1  UNL1       -0.1644
     28 F         139.6136  141.7630  170.6235 F       1  UNL1       -0.1644
     29 C         140.6766  145.5432  157.4443 C.3     1  UNL1        0.1448
     30 C         140.0191  144.9389  156.2391 C.3     1  UNL1        0.0988
     31 C         137.7985  145.5001  155.0126 C.3     1  UNL1        0.0897
     32 N         139.2394  145.8064  155.2960 N.3     1  UNL1       -0.2686
     33 C         139.9004  146.9802  154.6363 C.3     1  UNL1        0.0897
@<TRIPOS>BOND
     1    31    32    1
     2    32    33    1
     3    32    30    1
     4    30    29    1
     5    29     1    1
     6     1     2   ar
     7     2     3   ar
     8     3     4   ar
     9     4     5   ar
    10     5    15    1
    11    15    16   am
    12    16    17    2
    13    16    19    1
    14    19    20   ar
    15    20    21   ar
    16    21    22   ar
    17    22    23   ar
    18    23    25    1
    19    25    26    1
    20    25    27    1
    21    25    28    1
    22    23    24   ar
    23     5     6   ar
    24     6    10    1
    25    10    11    1
    26    10    12    1
    27    10    13    1
    28     6     7   ar
    29     7     8   ar
    30     8     9   ar
    31     9     1   ar
    32     8     3   ar
    33    24    19   ar
    34    15    18    1
    35    13    14    1
@<TRIPOS>MOLECULE
*****
 33 35 0 0 0
SMALL
GASTEIGER

@<TRIPOS>ATOM
      1 N         143.0501  138.4176  158.6568 N.ar    1  UNL1       -0.2480
      2 C         142.4383  137.8480  159.9023 C.ar    1  UNL1        0.0966
      3 C         142.8133  138.7365  161.0512 C.ar    1  UNL1        0.0393
      4 C         142.4956  138.6713  162.5157 C.ar    1  UNL1        0.0175
      5 C         143.0215  139.7250  163.4448 C.ar    1  UNL1        0.0488
      6 C         143.8651  140.8438  162.9094 C.ar    1  UNL1        0.0168
      7 C         144.1828  140.9089  161.4448 C.ar    1  UNL1        0.0201
      8 C         143.6569  139.8553  160.5158 C.ar    1  UNL1        0.1022
      9 N         143.8032  139.6581  159.0360 N.ar    1  UNL1       -0.1692
     10 C         144.3910  141.8975  163.8385 C.3     1  UNL1        0.1083
     11 C         145.6181  141.0700  164.0823 C.3     1  UNL1        0.0339
     12 C         143.1638  142.7249  163.5946 C.3     1  UNL1        0.0339
     13 O         144.9168  142.9511  164.7675 O.3     1  UNL1       -0.3826
     14 H         145.7784  142.6738  165.1164 H       1  UNL1        0.2107
     15 N         142.7038  139.6599  164.9093 N.am    1  UNL1       -0.2793
     16 C         141.3720  140.1351  165.4097 C.2     1  UNL1        0.2672
     17 O         140.3578  140.6755  164.4456 O.2     1  UNL1       -0.2682
     18 H         143.3694  139.3053  165.5421 H       1  UNL1        0.1552
     19 C         141.0543  140.0700  166.8742 C.ar    1  UNL1        0.1347
     20 C         139.6439  140.2673  167.3452 C.ar    1  UNL1        0.0238
     21 C         139.3262  140.2021  168.8098 C.ar    1  UNL1        0.0032
     22 C         140.4189  139.9398  169.8033 C.ar    1  UNL1        0.0231
     23 C         141.8293  139.7425  169.3323 C.ar    1  UNL1        0.1527
     24 N         142.1470  139.8076  167.8678 N.ar    1  UNL1       -0.2368
     25 C         142.9221  139.4801  170.3259 C.3     1  UNL1        0.4348
     26 F         144.0147  139.2176  171.3194 F       1  UNL1       -0.1644
     27 F         143.2627  140.9408  170.3370 F       1  UNL1       -0.1644
     28 F         142.5814  138.0194  170.3147 F       1  UNL1       -0.1644
     29 C         142.9299  137.8468  157.2749 C.3     1  UNL1        0.1448
     30 C         142.3505  136.4775  157.0767 C.3     1  UNL1        0.0988
     31 C         143.8416  135.3456  155.2751 C.3     1  UNL1        0.0897
     32 N         143.2342  135.3443  156.6467 N.3     1  UNL1       -0.2686
     33 C         143.5105  134.2097  157.5882 C.3     1  UNL1        0.0897
@<TRIPOS>BOND
     1    31    32    1
     2    32    33    1
     3    32    30    1
     4    30    29    1
     5    29     1    1
     6     1     2   ar
     7     2     3   ar
     8     3     4   ar
     9     4     5   ar
    10     5    15    1
    11    15    16   am
    12    16    17    2
    13    16    19    1
    14    19    20   ar
    15    20    21   ar
    16    21    22   ar
    17    22    23   ar
    18    23    25    1
    19    25    26    1
    20    25    27    1
    21    25    28    1
    22    23    24   ar
    23     5     6   ar
    24     6    10    1
    25    10    11    1
    26    10    12    1
    27    10    13    1
    28     6     7   ar
    29     7     8   ar
    30     8     9   ar
    31     9     1   ar
    32     8     3   ar
    33    24    19   ar
    34    15    18    1
    35    13    14    1
@<TRIPOS>MOLECULE
*****
 33 35 0 0 0
SMALL
GASTEIGER

@<TRIPOS>ATOM
      1 N         143.0353  138.5267  158.8407 N.ar    1  UNL1       -0.2480
      2 C         142.6195  137.9487  160.1610 C.ar    1  UNL1        0.0966
      3 C         143.0564  138.8951  161.2396 C.ar    1  UNL1        0.0393
      4 C         142.9183  138.8481  162.7325 C.ar    1  UNL1        0.0175
      5 C         143.4661  139.9641  163.5718 C.ar    1  UNL1        0.0488
      6 C         144.1520  141.1271  162.9183 C.ar    1  UNL1        0.0168
      7 C         144.2900  141.1740  161.4253 C.ar    1  UNL1        0.0201
      8 C         143.7422  140.0580  160.5860 C.ar    1  UNL1        0.1022
      9 N         143.7292  139.8303  159.1035 N.ar    1  UNL1       -0.1692
     10 C         144.6997  142.2431  163.7575 C.3     1  UNL1        0.1083
     11 C         145.9643  141.4643  163.9678 C.3     1  UNL1        0.0339
     12 C         143.4351  143.0219  163.5473 C.3     1  UNL1        0.0339
     13 O         145.2475  143.3591  164.5968 O.3     1  UNL1       -0.3826
     14 H         146.1366  143.1249  164.9059 H       1  UNL1        0.2107
     15 N         143.3281  139.9172  165.0647 N.am    1  UNL1       -0.2793
     16 C         142.0618  140.3888  165.7160 C.2     1  UNL1        0.2672
     17 O         140.9337  140.9074  164.8745 O.2     1  UNL1       -0.2682
     18 H         144.0685  139.5768  165.6171 H       1  UNL1        0.1552
     19 C         141.9238  140.3419  167.2089 C.ar    1  UNL1        0.1347
     20 C         142.6198  139.2692  167.9931 C.ar    1  UNL1        0.0238
     21 C         142.4818  139.2223  169.4861 C.ar    1  UNL1        0.0032
     22 C         141.6476  140.2480  170.1947 C.ar    1  UNL1        0.0231
     23 C         140.9516  141.3206  169.4105 C.ar    1  UNL1        0.1527
     24 N         141.0896  141.3676  167.9176 N.ar    1  UNL1       -0.2368
     25 C         140.1175  142.3463  170.1192 C.3     1  UNL1        0.4348
     26 F         139.2834  143.3720  170.8279 F       1  UNL1       -0.1644
     27 F         138.9766  141.3745  170.1830 F       1  UNL1       -0.1644
     28 F         141.2583  143.3181  170.0554 F       1  UNL1       -0.1644
     29 C         142.7987  137.9095  157.4942 C.3     1  UNL1        0.1448
     30 C         142.4649  136.4511  157.3859 C.3     1  UNL1        0.0988
     31 C         144.1387  135.9659  155.4590 C.3     1  UNL1        0.0897
     32 N         143.4079  135.5156  156.6891 N.3     1  UNL1       -0.2686
     33 C         143.6201  134.1298  157.2224 C.3     1  UNL1        0.0897
@<TRIPOS>BOND
     1    31    32    1
     2    32    33    1
     3    32    30    1
     4    30    29    1
     5    29     1    1
     6     1     2   ar
     7     2     3   ar
     8     3     4   ar
     9     4     5   ar
    10     5    15    1
    11    15    16   am
    12    16    17    2
    13    16    19    1
    14    19    20   ar
    15    20    21   ar
    16    21    22   ar
    17    22    23   ar
    18    23    25    1
    19    25    26    1
    20    25    27    1
    21    25    28    1
    22    23    24   ar
    23     5     6   ar
    24     6    10    1
    25    10    11    1
    26    10    12    1
    27    10    13    1
    28     6     7   ar
    29     7     8   ar
    30     8     9   ar
    31     9     1   ar
    32     8     3   ar
    33    24    19   ar
    34    15    18    1
    35    13    14    1
@<TRIPOS>MOLECULE
*****
 33 35 0 0 0
SMALL
GASTEIGER

@<TRIPOS>ATOM
      1 N         140.1626  139.9608  168.9837 N.ar    1  UNL1       -0.2480
      2 C         141.2145  140.3196  167.9763 C.ar    1  UNL1        0.0966
      3 C         140.6341  140.1174  166.6080 C.ar    1  UNL1        0.0393
      4 C         141.2078  140.3113  165.2357 C.ar    1  UNL1        0.0175
      5 C         140.3708  140.0215  164.0250 C.ar    1  UNL1        0.0488
      6 C         138.9602  139.5378  164.1868 C.ar    1  UNL1        0.0168
      7 C         138.3865  139.3439  165.5591 C.ar    1  UNL1        0.0201
      8 C         139.2235  139.6337  166.7697 C.ar    1  UNL1        0.1022
      9 N         138.9321  139.5369  168.2380 N.ar    1  UNL1       -0.1692
     10 C         138.1233  139.2480  162.9762 C.3     1  UNL1        0.1083
     11 C         138.5982  137.8253  162.9885 C.3     1  UNL1        0.0339
     12 C         137.6484  140.6708  162.9639 C.3     1  UNL1        0.0339
     13 O         137.2863  138.9582  161.7656 O.3     1  UNL1       -0.3826
     14 H         137.3955  138.0283  161.5122 H       1  UNL1        0.2107
     15 N         140.9445  140.2154  162.6527 N.am    1  UNL1       -0.2793
     16 C         141.8564  139.1781  162.0676 C.2     1  UNL1        0.2672
     17 O         142.1947  137.9469  162.8547 O.2     1  UNL1       -0.2682
     18 H         140.7226  141.0235  162.1361 H       1  UNL1        0.1552
     19 C         142.4301  139.3720  160.6953 C.ar    1  UNL1        0.1347
     20 C         143.3562  140.5207  160.4250 C.ar    1  UNL1        0.0238
     21 C         143.9299  140.7145  159.0526 C.ar    1  UNL1        0.0032
     22 C         143.5775  139.7598  157.9506 C.ar    1  UNL1        0.0231
     23 C         142.6515  138.6112  158.2210 C.ar    1  UNL1        0.1527
     24 N         142.0778  138.4173  159.5933 N.ar    1  UNL1       -0.2368
     25 C         142.2992  137.6564  157.1190 C.3     1  UNL1        0.4348
     26 F         141.9469  136.7017  156.0170 F       1  UNL1       -0.1644
     27 F         141.5359  138.7431  156.4215 F       1  UNL1       -0.1644
     28 F         143.0624  136.5697  157.8165 F       1  UNL1       -0.1644
     29 C         140.3146  140.0161  170.4749 C.3     1  UNL1        0.1448
     30 C         141.2696  140.9921  171.0958 C.3     1  UNL1        0.0988
     31 C         142.4949  143.1692  170.3825 C.3     1  UNL1        0.0897
     32 N         141.2244  142.4390  170.7029 N.3     1  UNL1       -0.2686
     33 C         139.9087  143.1557  170.6303 C.3     1  UNL1        0.0897
@<TRIPOS>BOND
     1    31    32    1
     2    32    33    1
     3    32    30    1
     4    30    29    1
     5    29     1    1
     6     1     2   ar
     7     2     3   ar
     8     3     4   ar
     9     4     5   ar
    10     5    15    1
    11    15    16   am
    12    16    17    2
    13    16    19    1
    14    19    20   ar
    15    20    21   ar
    16    21    22   ar
    17    22    23   ar
    18    23    25    1
    19    25    26    1
    20    25    27    1
    21    25    28    1
    22    23    24   ar
    23     5     6   ar
    24     6    10    1
    25    10    11    1
    26    10    12    1
    27    10    13    1
    28     6     7   ar
    29     7     8   ar
    30     8     9   ar
    31     9     1   ar
    32     8     3   ar
    33    24    19   ar
    34    15    18    1
    35    13    14    1
@<TRIPOS>MOLECULE
*****
 33 35 0 0 0
SMALL
GASTEIGER

@<TRIPOS>ATOM
      1 N         140.3255  139.9151  168.9762 N.ar    1  UNL1       -0.2480
      2 C         141.3804  140.2043  167.9498 C.ar    1  UNL1        0.0966
      3 C         140.7577  140.0629  166.5925 C.ar    1  UNL1        0.0393
      4 C         141.3157  140.2284  165.2101 C.ar    1  UNL1        0.0175
      5 C         140.4339  140.0172  164.0151 C.ar    1  UNL1        0.0488
      6 C         138.9942  139.6406  164.2026 C.ar    1  UNL1        0.0168
      7 C         138.4362  139.4750  165.5852 C.ar    1  UNL1        0.0201
      8 C         139.3180  139.6862  166.7801 C.ar    1  UNL1        0.1022
      9 N         139.0509  139.5949  168.2533 N.ar    1  UNL1       -0.1692
     10 C         138.1124  139.4294  163.0077 C.3     1  UNL1        0.1083
     11 C         138.5499  137.9964  162.9381 C.3     1  UNL1        0.0339
     12 C         137.6749  140.8625  163.0773 C.3     1  UNL1        0.0339
     13 O         137.2306  139.2183  161.8128 O.3     1  UNL1       -0.3826
     14 H         137.3073  138.2990  161.5128 H       1  UNL1        0.2107
     15 N         140.9919  140.1827  162.6326 N.am    1  UNL1       -0.2793
     16 C         141.8351  139.0987  162.0294 C.2     1  UNL1        0.2672
     17 O         142.1202  137.8491  162.8086 O.2     1  UNL1       -0.2682
     18 H         140.8048  141.0029  162.1212 H       1  UNL1        0.1552
     19 C         142.3931  139.2642  160.6469 C.ar    1  UNL1        0.1347
     20 C         142.1284  138.2216  159.6015 C.ar    1  UNL1        0.0238
     21 C         142.6865  138.3871  158.2190 C.ar    1  UNL1        0.0032
     22 C         143.5091  139.5953  157.8820 C.ar    1  UNL1        0.0231
     23 C         143.7737  140.6379  158.9274 C.ar    1  UNL1        0.1527
     24 N         143.2157  140.4724  160.3098 N.ar    1  UNL1       -0.2368
     25 C         144.5964  141.8461  158.5903 C.3     1  UNL1        0.4348
     26 F         145.4191  143.0542  158.2532 F       1  UNL1       -0.1644
     27 F         143.9364  142.6059  159.7025 F       1  UNL1       -0.1644
     28 F         145.2564  141.0863  157.4781 F       1  UNL1       -0.1644
     29 C         140.5125  139.9414  170.4643 C.3     1  UNL1        0.1448
     30 C         141.3629  141.0041  171.0947 C.3     1  UNL1        0.0988
     31 C         139.8307  143.0598  170.6743 C.3     1  UNL1        0.0897
     32 N         141.1957  142.4381  170.6873 N.3     1  UNL1       -0.2686
     33 C         142.3936  143.2502  170.2930 C.3     1  UNL1        0.0897
@<TRIPOS>BOND
     1    31    32    1
     2    32    33    1
     3    32    30    1
     4    30    29    1
     5    29     1    1
     6     1     2   ar
     7     2     3   ar
     8     3     4   ar
     9     4     5   ar
    10     5    15    1
    11    15    16   am
    12    16    17    2
    13    16    19    1
    14    19    20   ar
    15    20    21   ar
    16    21    22   ar
    17    22    23   ar
    18    23    25    1
    19    25    26    1
    20    25    27    1
    21    25    28    1
    22    23    24   ar
    23     5     6   ar
    24     6    10    1
    25    10    11    1
    26    10    12    1
    27    10    13    1
    28     6     7   ar
    29     7     8   ar
    30     8     9   ar
    31     9     1   ar
    32     8     3   ar
    33    24    19   ar
    34    15    18    1
    35    13    14    1
@<TRIPOS>MOLECULE
*****
 33 35 0 0 0
SMALL
GASTEIGER

@<TRIPOS>ATOM
      1 N         141.8372  144.8728  158.7732 N.ar    1  UNL1       -0.2480
      2 C         141.0663  144.7578  160.0548 C.ar    1  UNL1        0.0966
      3 C         141.7087  143.6885  160.8878 C.ar    1  UNL1        0.0393
      4 C         141.3811  143.1415  162.2455 C.ar    1  UNL1        0.0175
      5 C         142.2214  142.0484  162.8365 C.ar    1  UNL1        0.0488
      6 C         143.3893  141.5024  162.0697 C.ar    1  UNL1        0.0168
      7 C         143.7169  142.0496  160.7120 C.ar    1  UNL1        0.0201
      8 C         142.8766  143.1426  160.1211 C.ar    1  UNL1        0.1022
      9 N         142.9560  143.8745  158.8141 N.ar    1  UNL1       -0.1692
     10 C         144.2295  140.4094  162.6606 C.3     1  UNL1        0.1083
     11 C         143.2030  139.3968  162.2473 C.3     1  UNL1        0.0339
     12 C         145.2561  141.4220  163.0739 C.3     1  UNL1        0.0339
     13 O         145.0698  139.3164  163.2515 O.3     1  UNL1       -0.3826
     14 H         144.6250  138.4634  163.1269 H       1  UNL1        0.2107
     15 N         141.8937  141.5013  164.1941 N.am    1  UNL1       -0.2793
     16 C         142.4472  142.1612  165.4222 C.2     1  UNL1        0.2672
     17 O         143.3284  143.3681  165.2927 O.2     1  UNL1       -0.2682
     18 H         141.3154  140.7091  164.2792 H       1  UNL1        0.1552
     19 C         142.1196  141.6141  166.7799 C.ar    1  UNL1        0.1347
     20 C         142.6260  140.2618  167.1858 C.ar    1  UNL1        0.0238
     21 C         142.2983  139.7147  168.5436 C.ar    1  UNL1        0.0032
     22 C         141.4642  140.5200  169.4953 C.ar    1  UNL1        0.0231
     23 C         140.9578  141.8723  169.0894 C.ar    1  UNL1        0.1527
     24 N         141.2854  142.4194  167.7317 N.ar    1  UNL1       -0.2368
     25 C         140.1237  142.6775  170.0412 C.3     1  UNL1        0.4348
     26 F         139.2896  143.4827  170.9930 F       1  UNL1       -0.1644
     27 F         141.1042  143.8085  169.9438 F       1  UNL1       -0.1644
     28 F         139.1432  141.5466  170.1387 F       1  UNL1       -0.1644
     29 C         141.5412  145.8197  157.6481 C.3     1  UNL1        0.1448
     30 C         140.1267  146.2325  157.3677 C.3     1  UNL1        0.0988
     31 C         140.1177  147.3543  155.0243 C.3     1  UNL1        0.0897
     32 N         139.6268  146.2847  155.9544 N.3     1  UNL1       -0.2686
     33 C         138.6361  145.2674  155.4713 C.3     1  UNL1        0.0897
@<TRIPOS>BOND
     1    31    32    1
     2    32    33    1
     3    32    30    1
     4    30    29    1
     5    29     1    1
     6     1     2   ar
     7     2     3   ar
     8     3     4   ar
     9     4     5   ar
    10     5    15    1
    11    15    16   am
    12    16    17    2
    13    16    19    1
    14    19    20   ar
    15    20    21   ar
    16    21    22   ar
    17    22    23   ar
    18    23    25    1
    19    25    26    1
    20    25    27    1
    21    25    28    1
    22    23    24   ar
    23     5     6   ar
    24     6    10    1
    25    10    11    1
    26    10    12    1
    27    10    13    1
    28     6     7   ar
    29     7     8   ar
    30     8     9   ar
    31     9     1   ar
    32     8     3   ar
    33    24    19   ar
    34    15    18    1
    35    13    14    1
@<TRIPOS>MOLECULE
*****
 33 35 0 0 0
SMALL
GASTEIGER

@<TRIPOS>ATOM
      1 N         142.4586  144.0380  158.4311 N.ar    1  UNL1       -0.2480
      2 C         141.8024  144.3829  159.7352 C.ar    1  UNL1        0.0966
      3 C         142.3930  143.5044  160.7979 C.ar    1  UNL1        0.0393
      4 C         142.1329  143.3983  162.2714 C.ar    1  UNL1        0.0175
      5 C         142.8939  142.4042  163.0977 C.ar    1  UNL1        0.0488
      6 C         143.9151  141.5163  162.4505 C.ar    1  UNL1        0.0168
      7 C         144.1752  141.6225  160.9770 C.ar    1  UNL1        0.0201
      8 C         143.4142  142.6166  160.1507 C.ar    1  UNL1        0.1022
      9 N         143.4547  142.9463  158.6880 N.ar    1  UNL1       -0.1692
     10 C         144.6762  140.5223  163.2767 C.3     1  UNL1        0.1083
     11 C         145.7031  141.5695  163.5907 C.3     1  UNL1        0.0339
     12 C         143.6492  139.4751  162.9627 C.3     1  UNL1        0.0339
     13 O         145.4372  139.5283  164.1029 O.3     1  UNL1       -0.3826
     14 H         146.2274  139.9525  164.4724 H       1  UNL1        0.2107
     15 N         142.6338  142.2980  164.5711 N.am    1  UNL1       -0.2793
     16 C         141.4555  141.5154  165.0702 C.2     1  UNL1        0.2672
     17 O         140.5373  140.8390  164.0959 O.2     1  UNL1       -0.2682
     18 H         143.2364  142.7420  165.2106 H       1  UNL1        0.1552
     19 C         141.1954  141.4093  166.5436 C.ar    1  UNL1        0.1347
     20 C         140.1080  140.5088  167.0503 C.ar    1  UNL1        0.0238
     21 C         139.8479  140.4027  168.5238 C.ar    1  UNL1        0.0032
     22 C         140.6751  141.1970  169.4905 C.ar    1  UNL1        0.0231
     23 C         141.7625  142.0975  168.9839 C.ar    1  UNL1        0.1527
     24 N         142.0226  142.2036  167.5105 N.ar    1  UNL1       -0.2368
     25 C         142.5898  142.8918  169.9507 C.3     1  UNL1        0.4348
     26 F         143.4169  143.6862  170.9175 F       1  UNL1       -0.1644
     27 F         143.6957  141.8856  169.8312 F       1  UNL1       -0.1644
     28 F         141.4838  143.8980  170.0702 F       1  UNL1       -0.1644
     29 C         142.1694  144.6732  157.1034 C.3     1  UNL1        0.1448
     30 C         141.3754  145.9441  157.0371 C.3     1  UNL1        0.0988
     31 C         139.3150  144.6152  156.1776 C.3     1  UNL1        0.0897
     32 N         139.9631  145.9206  156.5325 N.3     1  UNL1       -0.2686
     33 C         139.1987  147.2026  156.3827 C.3     1  UNL1        0.0897
@<TRIPOS>BOND
     1    31    32    1
     2    32    33    1
     3    32    30    1
     4    30    29    1
     5    29     1    1
     6     1     2   ar
     7     2     3   ar
     8     3     4   ar
     9     4     5   ar
    10     5    15    1
    11    15    16   am
    12    16    17    2
    13    16    19    1
    14    19    20   ar
    15    20    21   ar
    16    21    22   ar
    17    22    23   ar
    18    23    25    1
    19    25    26    1
    20    25    27    1
    21    25    28    1
    22    23    24   ar
    23     5     6   ar
    24     6    10    1
    25    10    11    1
    26    10    12    1
    27    10    13    1
    28     6     7   ar
    29     7     8   ar
    30     8     9   ar
    31     9     1   ar
    32     8     3   ar
    33    24    19   ar
    34    15    18    1
    35    13    14    1
