@<TRIPOS>MOLECULE
*****
 56 58 0 0 0
SMALL
GASTEIGER

@<TRIPOS>ATOM
      1 C         138.1122  139.9242  154.0687 C.3     1  UNL1        0.1953
      2 O         137.7297  141.3741  154.1078 O.3     1  UNL1       -0.4497
      3 C         137.8104  142.7796  154.6256 C.2     1  UNL1        0.3188
      4 O         136.8057  143.5049  153.7803 O.2     1  UNL1       -0.2500
      5 C         138.3381  143.8623  155.5197 C.3     1  UNL1        0.1263
      6 C         137.5097  144.7346  154.9070 C.3     1  UNL1        0.0142
      7 C         139.2084  144.4077  156.6128 C.3     1  UNL1        0.1306
      8 C         140.2490  144.3078  157.6887 C.3     1  UNL1        0.0575
      9 C         140.3296  145.7134  158.2065 C.3     1  UNL1        0.0051
     10 C         141.2536  143.5826  158.5340 C.3     1  UNL1        0.1447
     11 C         142.0234  142.3754  158.9814 C.3     1  UNL1        0.1183
     12 C         142.4096  143.5937  159.7666 C.3     1  UNL1        0.0321
     13 C         142.4059  140.9255  158.9424 C.3     1  UNL1        0.0370
     14 C         142.3252  139.5201  158.4245 C.3     1  UNL1        0.0601
     15 C         143.3299  138.7947  159.2699 C.3     1  UNL1        0.0078
     16 C         141.7975  138.4373  157.5305 C.2     1  UNL1        0.1523
     17 O         142.5673  137.2301  157.9779 O.2     1  UNL1       -0.2960
     18 C         140.9272  137.8919  156.4373 C.3     1  UNL1        0.0869
     19 C         141.3096  136.4420  156.3982 C.3     1  UNL1        0.0104
     20 C         139.8866  137.9918  155.3615 C.3     1  UNL1        0.1451
     21 O         139.8060  136.5863  154.8437 O.3     1  UNL1       -0.3815
     22 C         138.8820  138.7171  154.5162 C.3     1  UNL1        0.1497
     23 C         138.9585  137.2643  154.1510 C.3     1  UNL1        0.0356
     24 O         137.9333  138.3809  153.4040 O.3     1  UNL1       -0.3808
     25 H         140.4281  136.0253  155.3328 H       1  UNL1        0.2105
     26 H         138.0059  137.4373  153.1912 H       1  UNL1        0.2105
     27 C         135.9734  140.0873  152.6028 C.3     1  UNL1        0.0039
     28 C         137.2418  139.3788  152.9755 C.3     1  UNL1        0.0462
     29 O         143.0754  142.0584  160.0026 O.3     1  UNL1       -0.3535
     30 C         143.8517  141.8816  159.9615 C.3     1  UNL1        0.1740
     31 O         138.8260  145.8577  156.6519 O.3     1  UNL1       -0.3323
     32 C         139.3479  146.7993  155.6075 C.3     1  UNL1        0.2375
     33 C         138.9069  148.2330  155.6027 C.3     1  UNL1        0.0910
     34 C         139.4288  149.1747  154.5582 C.3     1  UNL1        0.1246
     35 C         139.6419  150.4399  153.7811 C.3     1  UNL1        0.0324
     36 C         140.3917  148.6827  153.5186 C.3     1  UNL1        0.1623
     37 O         140.9136  149.6244  152.4742 O.3     1  UNL1       -0.3796
     38 C         140.8327  147.2490  153.5235 C.3     1  UNL1        0.1468
     39 C         141.7956  146.7570  152.4839 C.3     1  UNL1        0.0348
     40 O         140.3109  146.3073  154.5679 O.3     1  UNL1       -0.3304
     41 H         140.5318  150.5052  152.6134 H       1  UNL1        0.2105
     42 O         138.5399  150.1061  155.3279 O.3     1  UNL1       -0.3532
     43 C         138.9209  151.5484  155.4841 C.3     1  UNL1        0.1740
     44 O         141.7814  144.6652  159.4280 O.3     1  UNL1       -0.3287
     45 C         141.6588  144.5343  160.9173 C.3     1  UNL1        0.2643
     46 O         142.8579  144.7555  161.7908 O.3     1  UNL1       -0.3311
     47 C         142.7352  144.6245  163.2801 C.3     1  UNL1        0.1194
     48 C         143.9344  144.8458  164.1537 C.3     1  UNL1        0.0322
     49 C         141.4135  144.2725  163.8957 C.3     1  UNL1        0.0482
     50 C         140.2144  144.0513  163.0221 C.3     1  UNL1        0.0921
     51 C         140.3369  144.1822  161.5329 C.3     1  UNL1        0.1815
     52 O         139.1379  143.9610  160.6593 O.3     1  UNL1       -0.3783
     53 H         139.3879  144.0833  159.7300 H       1  UNL1        0.2106
     54 N         138.8926  143.6992  163.6378 N.3     1  UNL1       -0.2692
     55 C         138.1636  142.4656  163.1945 C.3     1  UNL1        0.0897
     56 C         138.3000  144.5807  164.6969 C.3     1  UNL1        0.0897
@<TRIPOS>BOND
     1    27    28    1
     2    28     1    1
     3     1     2    1
     4     2     3    1
     5     3     4    2
     6     3     5    1
     7     5     6    1
     8     5     7    1
     9     7    31    1
    10    31    32    1
    11    32    33    1
    12    33    34    1
    13    34    35    1
    14    34    42    1
    15    42    43    1
    16    34    36    1
    17    36    37    1
    18    36    38    1
    19    38    39    1
    20    38    40    1
    21     7     8    1
    22     8     9    1
    23     8    10    1
    24    10    44    1
    25    44    45    1
    26    45    46    1
    27    46    47    1
    28    47    48    1
    29    47    49    1
    30    49    50    1
    31    50    54    1
    32    54    55    1
    33    54    56    1
    34    50    51    1
    35    51    52    1
    36    10    11    1
    37    11    12    1
    38    11    29    1
    39    29    30    1
    40    11    13    1
    41    13    14    1
    42    14    15    1
    43    14    16    1
    44    16    17    2
    45    16    18    1
    46    18    19    1
    47    18    20    1
    48    20    21    1
    49    20    22    1
    50    22    23    1
    51    22    24    1
    52    22     1    1
    53    40    32    1
    54    51    45    1
    55    37    41    1
    56    52    53    1
    57    21    25    1
    58    24    26    1
@<TRIPOS>MOLECULE
*****
 56 58 0 0 0
SMALL
GASTEIGER

@<TRIPOS>ATOM
      1 C         139.0248  138.3940  154.6250 C.3     1  UNL1        0.1953
      2 O         140.0809  137.8138  155.5185 O.3     1  UNL1       -0.4497
      3 C         141.1495  137.8825  156.5688 C.2     1  UNL1        0.3188
      4 O         141.5968  136.4553  156.6837 O.2     1  UNL1       -0.2500
      5 C         142.0192  138.5862  157.5680 C.3     1  UNL1        0.1263
      6 C         142.5949  137.4009  157.8613 C.3     1  UNL1        0.0142
      7 C         142.5176  139.7857  158.3182 C.3     1  UNL1        0.1306
      8 C         142.5460  141.2435  158.6707 C.3     1  UNL1        0.0575
      9 C         143.6147  141.3121  159.7211 C.3     1  UNL1        0.0051
     10 C         142.0988  142.6706  158.5558 C.3     1  UNL1        0.1447
     11 C         141.2646  143.7846  157.9963 C.3     1  UNL1        0.1183
     12 C         142.2225  144.2862  159.0358 C.3     1  UNL1        0.0321
     13 C         140.2085  144.3647  157.1028 C.3     1  UNL1        0.0370
     14 C         139.1399  144.2961  156.0525 C.3     1  UNL1        0.0601
     15 C         138.6927  145.7233  155.9376 C.3     1  UNL1        0.0078
     16 C         138.2702  143.5924  155.0532 C.2     1  UNL1        0.1523
     17 O         137.4360  144.7064  154.4937 O.2     1  UNL1       -0.2960
     18 C         137.7718  142.3928  154.3031 C.3     1  UNL1        0.0869
     19 C         136.7157  142.9730  153.4096 C.3     1  UNL1        0.0104
     20 C         137.7434  140.9351  153.9505 C.3     1  UNL1        0.1451
     21 O         136.6747  140.8665  152.9002 O.3     1  UNL1       -0.3815
     22 C         138.1906  139.5079  154.0654 C.3     1  UNL1        0.1497
     23 C         137.1019  139.6606  153.0450 C.3     1  UNL1        0.0356
     24 O         137.8423  138.1923  153.4348 O.3     1  UNL1       -0.3808
     25 H         136.3134  141.7538  152.7481 H       1  UNL1        0.2105
     26 H         137.1375  138.3235  152.7814 H       1  UNL1        0.2105
     27 C         139.3236  136.6405  152.7314 C.3     1  UNL1        0.0039
     28 C         138.5264  137.1944  153.8749 C.3     1  UNL1        0.0462
     29 O         141.1302  145.2651  158.1963 O.3     1  UNL1       -0.3535
     30 C         141.3351  145.9031  157.7644 C.3     1  UNL1        0.1740
     31 O         143.5737  139.2056  159.2117 O.3     1  UNL1       -0.3323
     32 C         143.2628  138.9164  160.6503 C.3     1  UNL1        0.2375
     33 C         141.9649  138.2617  161.0201 C.3     1  UNL1        0.0910
     34 C         141.6540  137.9724  162.4588 C.3     1  UNL1        0.1246
     35 C         140.9106  137.4992  163.6727 C.3     1  UNL1        0.0324
     36 C         142.6411  138.3378  163.5276 C.3     1  UNL1        0.1623
     37 O         142.3302  138.0485  164.9662 O.3     1  UNL1       -0.3796
     38 C         143.9390  138.9924  163.1576 C.3     1  UNL1        0.1468
     39 C         144.9261  139.3578  164.2264 C.3     1  UNL1        0.0348
     40 O         144.2499  139.2817  161.7191 O.3     1  UNL1       -0.3304
     41 H         141.4588  137.6271  165.0302 H       1  UNL1        0.2105
     42 O         140.4088  137.4428  161.8116 O.3     1  UNL1       -0.3532
     43 C         139.6659  138.2826  160.8153 C.3     1  UNL1        0.1740
     44 O         142.9685  143.3744  159.5550 O.3     1  UNL1       -0.3287
     45 C         142.4207  143.7341  160.9043 C.3     1  UNL1        0.2643
     46 O         140.9630  144.0507  161.0619 O.3     1  UNL1       -0.3311
     47 C         140.4153  144.4104  162.4112 C.3     1  UNL1        0.1194
     48 C         138.9575  144.7270  162.5689 C.3     1  UNL1        0.0322
     49 C         141.3252  144.4535  163.6029 C.3     1  UNL1        0.0482
     50 C         142.7829  144.1369  163.4453 C.3     1  UNL1        0.0921
     51 C         143.3307  143.7772  162.0961 C.3     1  UNL1        0.1815
     52 O         144.7884  143.4606  161.9384 O.3     1  UNL1       -0.3783
     53 H         144.9751  143.2506  161.0100 H       1  UNL1        0.2106
     54 N         143.6929  144.1801  164.6370 N.3     1  UNL1       -0.2692
     55 C         143.9573  142.9310  165.4243 C.3     1  UNL1        0.0897
     56 C         144.3384  145.4723  165.0413 C.3     1  UNL1        0.0897
@<TRIPOS>BOND
     1    27    28    1
     2    28     1    1
     3     1     2    1
     4     2     3    1
     5     3     4    2
     6     3     5    1
     7     5     6    1
     8     5     7    1
     9     7    31    1
    10    31    32    1
    11    32    33    1
    12    33    34    1
    13    34    35    1
    14    34    42    1
    15    42    43    1
    16    34    36    1
    17    36    37    1
    18    36    38    1
    19    38    39    1
    20    38    40    1
    21     7     8    1
    22     8     9    1
    23     8    10    1
    24    10    44    1
    25    44    45    1
    26    45    46    1
    27    46    47    1
    28    47    48    1
    29    47    49    1
    30    49    50    1
    31    50    54    1
    32    54    55    1
    33    54    56    1
    34    50    51    1
    35    51    52    1
    36    10    11    1
    37    11    12    1
    38    11    29    1
    39    29    30    1
    40    11    13    1
    41    13    14    1
    42    14    15    1
    43    14    16    1
    44    16    17    2
    45    16    18    1
    46    18    19    1
    47    18    20    1
    48    20    21    1
    49    20    22    1
    50    22    23    1
    51    22    24    1
    52    22     1    1
    53    40    32    1
    54    51    45    1
    55    37    41    1
    56    52    53    1
    57    21    25    1
    58    24    26    1
@<TRIPOS>MOLECULE
*****
 56 58 0 0 0
SMALL
GASTEIGER

@<TRIPOS>ATOM
      1 C         138.8495  139.0785  165.9945 C.3     1  UNL1        0.1953
      2 O         138.5587  138.5050  164.6394 O.3     1  UNL1       -0.4497
      3 C         138.8100  138.3051  163.1742 C.2     1  UNL1        0.3188
      4 O         137.7038  137.3764  162.7694 O.2     1  UNL1       -0.2500
      5 C         139.5536  138.5186  161.8890 C.3     1  UNL1        0.1263
      6 C         138.6719  137.7014  161.2747 C.3     1  UNL1        0.0142
      7 C         140.6422  139.1031  161.0386 C.3     1  UNL1        0.1306
      8 C         141.8603  139.9429  160.7913 C.3     1  UNL1        0.0575
      9 C         142.1116  139.7430  159.3260 C.3     1  UNL1        0.0051
     10 C         142.9665  140.8715  161.1960 C.3     1  UNL1        0.1447
     11 C         143.7418  141.7053  162.1727 C.3     1  UNL1        0.1183
     12 C         144.3332  141.7816  160.7964 C.3     1  UNL1        0.0321
     13 C         144.0325  142.2788  163.5279 C.3     1  UNL1        0.0370
     14 C         143.7813  142.4787  164.9930 C.3     1  UNL1        0.0601
     15 C         144.8874  143.4074  165.3978 C.3     1  UNL1        0.0078
     16 C         143.0376  142.2652  166.2782 C.2     1  UNL1        0.1523
     17 O         143.8129  143.0989  167.2549 O.2     1  UNL1       -0.2960
     18 C         141.9490  141.6807  167.1286 C.3     1  UNL1        0.0869
     19 C         142.2398  142.2543  168.4838 C.3     1  UNL1        0.0104
     20 C         140.7309  140.8409  167.3759 C.3     1  UNL1        0.1451
     21 O         140.4796  141.0408  168.8412 O.3     1  UNL1       -0.3815
     22 C         139.6247  139.9123  166.9712 C.3     1  UNL1        0.1497
     23 C         139.5539  140.2450  168.4321 C.3     1  UNL1        0.0356
     24 O         138.4668  139.2267  167.6338 O.3     1  UNL1       -0.3808
     25 H         141.1522  141.6369  169.2062 H       1  UNL1        0.2105
     26 H         138.4478  139.4609  168.5750 H       1  UNL1        0.2105
     27 C         137.4652  137.0249  166.7797 C.3     1  UNL1        0.0039
     28 C         137.7608  138.4940  166.8450 C.3     1  UNL1        0.0462
     29 O         144.9492  142.5947  162.1437 O.3     1  UNL1       -0.3535
     30 C         145.0548  143.3847  162.1260 C.3     1  UNL1        0.1740
     31 O         140.3515  138.5295  159.6834 O.3     1  UNL1       -0.3323
     32 C         139.5883  139.3366  158.6754 C.3     1  UNL1        0.2375
     33 C         139.1242  140.7210  159.0194 C.3     1  UNL1        0.0910
     34 C         138.3610  141.5282  158.0114 C.3     1  UNL1        0.1246
     35 C         137.6112  142.6741  157.3991 C.3     1  UNL1        0.0324
     36 C         138.0618  140.9510  156.6596 C.3     1  UNL1        0.1623
     37 O         137.2986  141.7583  155.6517 O.3     1  UNL1       -0.3796
     38 C         138.5259  139.5667  156.3158 C.3     1  UNL1        0.1468
     39 C         138.2266  138.9896  154.9639 C.3     1  UNL1        0.0348
     40 O         139.2890  138.7595  157.3236 O.3     1  UNL1       -0.3304
     41 H         137.0760  142.6227  156.0314 H       1  UNL1        0.2105
     42 O         138.3998  142.5033  159.1506 O.3     1  UNL1       -0.3532
     43 C         138.2943  142.0107  160.5634 C.3     1  UNL1        0.1740
     44 O         143.7101  141.0850  159.9110 O.3     1  UNL1       -0.3287
     45 C         143.2666  142.1538  158.9564 C.3     1  UNL1        0.2643
     46 O         142.4075  143.2835  159.4419 O.3     1  UNL1       -0.3311
     47 C         141.9641  144.3522  158.4873 C.3     1  UNL1        0.1194
     48 C         141.1049  145.4820  158.9728 C.3     1  UNL1        0.0322
     49 C         142.3796  144.2912  157.0474 C.3     1  UNL1        0.0482
     50 C         143.2387  143.1615  156.5619 C.3     1  UNL1        0.0921
     51 C         143.6822  142.0927  157.5164 C.3     1  UNL1        0.1815
     52 O         144.5413  140.9630  157.0310 O.3     1  UNL1       -0.3783
     53 H         144.7363  140.3648  157.7692 H       1  UNL1        0.2106
     54 N         143.6543  143.1005  155.1219 N.3     1  UNL1       -0.2692
     55 C         145.1024  143.2307  154.7531 C.3     1  UNL1        0.0897
     56 C         142.6218  142.9094  154.0508 C.3     1  UNL1        0.0897
@<TRIPOS>BOND
     1    27    28    1
     2    28     1    1
     3     1     2    1
     4     2     3    1
     5     3     4    2
     6     3     5    1
     7     5     6    1
     8     5     7    1
     9     7    31    1
    10    31    32    1
    11    32    33    1
    12    33    34    1
    13    34    35    1
    14    34    42    1
    15    42    43    1
    16    34    36    1
    17    36    37    1
    18    36    38    1
    19    38    39    1
    20    38    40    1
    21     7     8    1
    22     8     9    1
    23     8    10    1
    24    10    44    1
    25    44    45    1
    26    45    46    1
    27    46    47    1
    28    47    48    1
    29    47    49    1
    30    49    50    1
    31    50    54    1
    32    54    55    1
    33    54    56    1
    34    50    51    1
    35    51    52    1
    36    10    11    1
    37    11    12    1
    38    11    29    1
    39    29    30    1
    40    11    13    1
    41    13    14    1
    42    14    15    1
    43    14    16    1
    44    16    17    2
    45    16    18    1
    46    18    19    1
    47    18    20    1
    48    20    21    1
    49    20    22    1
    50    22    23    1
    51    22    24    1
    52    22     1    1
    53    40    32    1
    54    51    45    1
    55    37    41    1
    56    52    53    1
    57    21    25    1
    58    24    26    1
@<TRIPOS>MOLECULE
*****
 56 58 0 0 0
SMALL
GASTEIGER

@<TRIPOS>ATOM
      1 C         140.2519  140.2431  163.2480 C.3     1  UNL1        0.1953
      2 O         140.9695  139.1178  162.5634 O.3     1  UNL1       -0.4497
      3 C         141.7324  138.4893  161.4352 C.2     1  UNL1        0.3188
      4 O         141.9699  137.0932  161.9297 O.2     1  UNL1       -0.2500
      5 C         142.3898  138.4820  160.0869 C.3     1  UNL1        0.1263
      6 C         142.7321  137.1922  160.2907 C.3     1  UNL1        0.0142
      7 C         142.8112  139.0976  158.7855 C.3     1  UNL1        0.1306
      8 C         142.9133  140.2140  157.7889 C.3     1  UNL1        0.0575
      9 C         143.6763  139.5855  156.6607 C.3     1  UNL1        0.0051
     10 C         142.6759  141.6101  157.2943 C.3     1  UNL1        0.1447
     11 C         142.1459  143.0093  157.3998 C.3     1  UNL1        0.1183
     12 C         142.8545  142.7885  156.0964 C.3     1  UNL1        0.0321
     13 C         141.4283  144.1347  158.0845 C.3     1  UNL1        0.0370
     14 C         140.6653  144.7632  159.2126 C.3     1  UNL1        0.0601
     15 C         140.4278  146.1593  158.7181 C.3     1  UNL1        0.0078
     16 C         140.0080  144.7704  160.5610 C.2     1  UNL1        0.1523
     17 O         139.4780  146.1697  160.6664 O.2     1  UNL1       -0.2960
     18 C         139.5865  144.1548  161.8623 C.3     1  UNL1        0.0869
     19 C         138.8690  145.2802  162.5470 C.3     1  UNL1        0.0104
     20 C         139.4844  143.0384  162.8590 C.3     1  UNL1        0.1451
     21 O         138.7214  143.6670  163.9872 O.3     1  UNL1       -0.3815
     22 C         139.7219  141.6424  163.3535 C.3     1  UNL1        0.1497
     23 C         138.9571  142.4559  164.3551 C.3     1  UNL1        0.0356
     24 O         139.4006  140.8407  164.5799 O.3     1  UNL1       -0.3808
     25 H         138.5147  144.5880  163.7640 H       1  UNL1        0.2105
     26 H         138.9073  141.3926  165.2068 H       1  UNL1        0.2105
     27 C         139.5307  138.1596  164.6225 C.3     1  UNL1        0.0039
     28 C         139.8305  139.6275  164.5494 C.3     1  UNL1        0.0462
     29 O         142.1336  144.2473  156.5529 O.3     1  UNL1       -0.3535
     30 C         141.5753  144.6166  156.1199 C.3     1  UNL1        0.1740
     31 O         143.5288  137.9723  158.1009 O.3     1  UNL1       -0.3323
     32 C         142.7748  137.0405  157.1991 C.3     1  UNL1        0.2375
     33 C         143.3791  135.7253  156.8053 C.3     1  UNL1        0.0910
     34 C         142.6251  134.7934  155.9035 C.3     1  UNL1        0.1246
     35 C         142.3042  133.5824  155.0787 C.3     1  UNL1        0.0324
     36 C         141.2667  135.1768  155.3956 C.3     1  UNL1        0.1623
     37 O         140.5128  134.2450  154.4938 O.3     1  UNL1       -0.3796
     38 C         140.6625  136.4920  155.7894 C.3     1  UNL1        0.1468
     39 C         139.3041  136.8753  155.2814 C.3     1  UNL1        0.0348
     40 O         141.4164  137.4238  156.6911 O.3     1  UNL1       -0.3304
     41 H         141.0412  133.4462  154.3396 H       1  UNL1        0.2105
     42 O         143.8720  133.9895  156.1250 O.3     1  UNL1       -0.3532
     43 C         144.1408  133.3770  157.4675 C.3     1  UNL1        0.1740
     44 O         143.3331  141.6029  155.9461 O.3     1  UNL1       -0.3287
     45 C         144.7616  142.0387  155.8057 C.3     1  UNL1        0.2643
     46 O         145.5439  142.4465  157.0188 O.3     1  UNL1       -0.3311
     47 C         146.9723  142.8824  156.8784 C.3     1  UNL1        0.1194
     48 C         147.7547  143.2902  158.0916 C.3     1  UNL1        0.0322
     49 C         147.6184  142.9103  155.5250 C.3     1  UNL1        0.0482
     50 C         146.8360  142.5025  154.3119 C.3     1  UNL1        0.0921
     51 C         145.4077  142.0667  154.4522 C.3     1  UNL1        0.1815
     52 O         144.6253  141.6588  153.2392 O.3     1  UNL1       -0.3783
     53 H         143.7264  141.4076  153.5036 H       1  UNL1        0.2106
     54 N         147.4822  142.5305  152.9585 N.3     1  UNL1       -0.2692
     55 C         147.2501  143.6939  152.0405 C.3     1  UNL1        0.0897
     56 C         148.3603  141.3950  152.5230 C.3     1  UNL1        0.0897
@<TRIPOS>BOND
     1    27    28    1
     2    28     1    1
     3     1     2    1
     4     2     3    1
     5     3     4    2
     6     3     5    1
     7     5     6    1
     8     5     7    1
     9     7    31    1
    10    31    32    1
    11    32    33    1
    12    33    34    1
    13    34    35    1
    14    34    42    1
    15    42    43    1
    16    34    36    1
    17    36    37    1
    18    36    38    1
    19    38    39    1
    20    38    40    1
    21     7     8    1
    22     8     9    1
    23     8    10    1
    24    10    44    1
    25    44    45    1
    26    45    46    1
    27    46    47    1
    28    47    48    1
    29    47    49    1
    30    49    50    1
    31    50    54    1
    32    54    55    1
    33    54    56    1
    34    50    51    1
    35    51    52    1
    36    10    11    1
    37    11    12    1
    38    11    29    1
    39    29    30    1
    40    11    13    1
    41    13    14    1
    42    14    15    1
    43    14    16    1
    44    16    17    2
    45    16    18    1
    46    18    19    1
    47    18    20    1
    48    20    21    1
    49    20    22    1
    50    22    23    1
    51    22    24    1
    52    22     1    1
    53    40    32    1
    54    51    45    1
    55    37    41    1
    56    52    53    1
    57    21    25    1
    58    24    26    1
@<TRIPOS>MOLECULE
*****
 56 58 0 0 0
SMALL
GASTEIGER

@<TRIPOS>ATOM
      1 C         142.1217  142.5858  168.8334 C.3     1  UNL1        0.1953
      2 O         143.1331  142.8884  167.7678 O.3     1  UNL1       -0.4497
      3 C         143.7593  142.7280  166.4143 C.2     1  UNL1        0.3188
      4 O         144.9035  143.6970  166.4589 O.2     1  UNL1       -0.2500
      5 C         143.8765  142.1363  165.0408 C.3     1  UNL1        0.1263
      6 C         144.9544  142.9198  164.8247 C.3     1  UNL1        0.0142
      7 C         143.4612  141.2305  163.9196 C.3     1  UNL1        0.1306
      8 C         142.5957  140.1900  163.2726 C.3     1  UNL1        0.0575
      9 C         143.2221  140.0296  161.9191 C.3     1  UNL1        0.0051
     10 C         141.4517  139.2211  163.2280 C.3     1  UNL1        0.1447
     11 C         140.2554  138.5154  163.7946 C.3     1  UNL1        0.1183
     12 C         140.5501  138.0583  162.3967 C.3     1  UNL1        0.0321
     13 C         139.2440  138.2128  164.8602 C.3     1  UNL1        0.0370
     14 C         138.6177  138.3732  166.2137 C.3     1  UNL1        0.0601
     15 C         137.4736  137.4042  166.1691 C.3     1  UNL1        0.0078
     16 C         138.5006  138.9649  167.5871 C.2     1  UNL1        0.1523
     17 O         137.3044  138.2592  168.1537 O.2     1  UNL1       -0.2960
     18 C         138.9159  139.8707  168.7083 C.3     1  UNL1        0.0869
     19 C         137.9045  139.5681  169.7740 C.3     1  UNL1        0.0104
     20 C         139.7813  140.9111  169.3553 C.3     1  UNL1        0.1451
     21 O         139.1550  141.0716  170.7089 O.3     1  UNL1       -0.3815
     22 C         140.9254  141.8801  169.4000 C.3     1  UNL1        0.1497
     23 C         140.1526  141.8852  170.6855 C.3     1  UNL1        0.0356
     24 O         141.5048  142.8528  170.3838 O.3     1  UNL1       -0.3808
     25 H         138.3917  140.4778  170.7843 H       1  UNL1        0.2105
     26 H         140.9849  142.8331  171.2025 H       1  UNL1        0.2105
     27 C         143.8148  143.2306  170.6955 C.3     1  UNL1        0.0039
     28 C         142.5370  143.4916  169.9546 C.3     1  UNL1        0.0462
     29 O         139.2745  137.4757  163.3398 O.3     1  UNL1       -0.3535
     30 C         138.5307  137.5034  163.0543 C.3     1  UNL1        0.1740
     31 O         144.4726  141.5331  162.8540 O.3     1  UNL1       -0.3323
     32 C         144.0464  142.2133  161.5869 C.3     1  UNL1        0.2375
     33 C         142.8461  143.1129  161.5859 C.3     1  UNL1        0.0910
     34 C         142.4197  143.7932  160.3188 C.3     1  UNL1        0.1246
     35 C         141.6293  144.6534  159.3779 C.3     1  UNL1        0.0324
     36 C         143.1937  143.5738  159.0527 C.3     1  UNL1        0.1623
     37 O         142.7674  144.2541  157.7857 O.3     1  UNL1       -0.3796
     38 C         144.3940  142.6742  159.0538 C.3     1  UNL1        0.1468
     39 C         145.1679  142.4548  157.7877 C.3     1  UNL1        0.0348
     40 O         144.8203  141.9940  160.3208 O.3     1  UNL1       -0.3304
     41 H         141.9805  144.7946  157.9579 H       1  UNL1        0.2105
     42 O         141.3713  144.3113  161.2581 O.3     1  UNL1       -0.3532
     43 C         140.4642  145.4260  160.8284 C.3     1  UNL1        0.1740
     44 O         141.5687  138.6294  161.8547 O.3     1  UNL1       -0.3287
     45 C         140.8959  139.2954  160.6912 C.3     1  UNL1        0.2643
     46 O         140.0032  140.4793  160.9182 O.3     1  UNL1       -0.3311
     47 C         139.3304  141.1453  159.7547 C.3     1  UNL1        0.1194
     48 C         138.4377  142.3293  159.9817 C.3     1  UNL1        0.0322
     49 C         139.5503  140.6275  158.3642 C.3     1  UNL1        0.0482
     50 C         140.4429  139.4436  158.1372 C.3     1  UNL1        0.0921
     51 C         141.1158  138.7776  159.3006 C.3     1  UNL1        0.1815
     52 O         142.0085  137.5937  159.0737 O.3     1  UNL1       -0.3783
     53 H         142.3603  137.2864  159.9237 H       1  UNL1        0.2106
     54 N         140.6627  138.9258  156.7466 N.3     1  UNL1       -0.2692
     55 C         141.7218  139.5366  155.8776 C.3     1  UNL1        0.0897
     56 C         139.8234  137.7973  156.2252 C.3     1  UNL1        0.0897
@<TRIPOS>BOND
     1    27    28    1
     2    28     1    1
     3     1     2    1
     4     2     3    1
     5     3     4    2
     6     3     5    1
     7     5     6    1
     8     5     7    1
     9     7    31    1
    10    31    32    1
    11    32    33    1
    12    33    34    1
    13    34    35    1
    14    34    42    1
    15    42    43    1
    16    34    36    1
    17    36    37    1
    18    36    38    1
    19    38    39    1
    20    38    40    1
    21     7     8    1
    22     8     9    1
    23     8    10    1
    24    10    44    1
    25    44    45    1
    26    45    46    1
    27    46    47    1
    28    47    48    1
    29    47    49    1
    30    49    50    1
    31    50    54    1
    32    54    55    1
    33    54    56    1
    34    50    51    1
    35    51    52    1
    36    10    11    1
    37    11    12    1
    38    11    29    1
    39    29    30    1
    40    11    13    1
    41    13    14    1
    42    14    15    1
    43    14    16    1
    44    16    17    2
    45    16    18    1
    46    18    19    1
    47    18    20    1
    48    20    21    1
    49    20    22    1
    50    22    23    1
    51    22    24    1
    52    22     1    1
    53    40    32    1
    54    51    45    1
    55    37    41    1
    56    52    53    1
    57    21    25    1
    58    24    26    1
@<TRIPOS>MOLECULE
*****
 56 58 0 0 0
SMALL
GASTEIGER

@<TRIPOS>ATOM
      1 C         141.5653  139.8655  164.4194 C.3     1  UNL1        0.1953
      2 O         142.2573  139.0958  163.3337 O.3     1  UNL1       -0.4497
      3 C         142.7973  138.9025  161.9477 C.2     1  UNL1        0.3188
      4 O         143.3793  137.5213  162.0058 O.2     1  UNL1       -0.2500
      5 C         143.0783  139.3240  160.5358 C.3     1  UNL1        0.1263
      6 C         143.6681  138.1281  160.3249 C.3     1  UNL1        0.0142
      7 C         143.0447  140.2767  159.3777 C.3     1  UNL1        0.1306
      8 C         142.7030  141.5721  158.7027 C.3     1  UNL1        0.0575
      9 C         143.2430  141.3788  157.3167 C.3     1  UNL1        0.0051
     10 C         142.1210  142.9533  158.6446 C.3     1  UNL1        0.1447
     11 C         141.4140  144.1470  159.2149 C.3     1  UNL1        0.1183
     12 C         141.7904  144.3669  157.7797 C.3     1  UNL1        0.0321
     13 C         140.7220  144.9167  160.3005 C.3     1  UNL1        0.0370
     14 C         140.1820  145.1100  161.6865 C.3     1  UNL1        0.0601
     15 C         139.6000  146.4913  161.6285 C.3     1  UNL1        0.0078
     16 C         139.9010  144.6885  163.0985 C.2     1  UNL1        0.1523
     17 O         139.1939  145.8823  163.6687 O.2     1  UNL1       -0.2960
     18 C         139.9346  143.7358  164.2566 C.3     1  UNL1        0.0869
     19 C         139.2426  144.5055  165.3422 C.3     1  UNL1        0.0104
     20 C         140.2763  142.4405  164.9315 C.3     1  UNL1        0.1451
     21 O         139.7363  142.6338  166.3175 O.3     1  UNL1       -0.3815
     22 C         140.8582  141.0592  164.9896 C.3     1  UNL1        0.1497
     23 C         140.2537  141.4549  166.3041 C.3     1  UNL1        0.0356
     24 O         140.9985  139.9671  166.0081 O.3     1  UNL1       -0.3808
     25 H         139.3311  143.5123  166.3870 H       1  UNL1        0.2105
     26 H         140.5992  140.2521  166.8449 H       1  UNL1        0.2105
     27 C         142.8604  138.7405  166.3705 C.3     1  UNL1        0.0039
     28 C         141.5989  138.9128  165.5775 C.3     1  UNL1        0.0462
     29 O         140.9820  145.5014  158.7365 O.3     1  UNL1       -0.3535
     30 C         140.2840  145.8861  158.7195 C.3     1  UNL1        0.1740
     31 O         143.7367  139.5070  158.2920 O.3     1  UNL1       -0.3323
     32 C         142.9834  138.4733  157.5085 C.3     1  UNL1        0.2375
     33 C         141.4878  138.5444  157.4170 C.3     1  UNL1        0.0910
     34 C         140.7344  137.5107  156.6335 C.3     1  UNL1        0.1246
     35 C         139.5846  136.7715  156.0158 C.3     1  UNL1        0.0324
     36 C         141.4766  136.4059  155.9415 C.3     1  UNL1        0.1623
     37 O         140.7231  135.3722  155.1581 O.3     1  UNL1       -0.3796
     38 C         142.9721  136.3349  156.0331 C.3     1  UNL1        0.1468
     39 C         143.7142  135.2301  155.3412 C.3     1  UNL1        0.0348
     40 O         143.7255  137.3685  156.8166 O.3     1  UNL1       -0.3304
     41 H         139.7731  135.5634  155.2006 H       1  UNL1        0.2105
     42 O         139.5930  138.3587  157.1109 O.3     1  UNL1       -0.3532
     43 C         139.5118  138.7644  158.5527 C.3     1  UNL1        0.1740
     44 O         142.4020  143.3748  157.2328 O.3     1  UNL1       -0.3287
     45 C         141.2826  143.8515  156.3555 C.3     1  UNL1        0.2643
     46 O         141.3448  145.2157  155.7350 O.3     1  UNL1       -0.3311
     47 C         140.2254  145.6923  154.8577 C.3     1  UNL1        0.1194
     48 C         140.2877  147.0566  154.2372 C.3     1  UNL1        0.0322
     49 C         139.0438  144.8048  154.6009 C.3     1  UNL1        0.0482
     50 C         138.9815  143.4406  155.2214 C.3     1  UNL1        0.0921
     51 C         140.1009  142.9639  156.0987 C.3     1  UNL1        0.1815
     52 O         140.0387  141.5997  156.7192 O.3     1  UNL1       -0.3783
     53 H         140.8353  141.4503  157.2521 H       1  UNL1        0.2106
     54 N         137.7998  142.5531  154.9645 N.3     1  UNL1       -0.2692
     55 C         137.8386  141.5587  153.8422 C.3     1  UNL1        0.0897
     56 C         136.5794  142.6600  155.8300 C.3     1  UNL1        0.0897
@<TRIPOS>BOND
     1    27    28    1
     2    28     1    1
     3     1     2    1
     4     2     3    1
     5     3     4    2
     6     3     5    1
     7     5     6    1
     8     5     7    1
     9     7    31    1
    10    31    32    1
    11    32    33    1
    12    33    34    1
    13    34    35    1
    14    34    42    1
    15    42    43    1
    16    34    36    1
    17    36    37    1
    18    36    38    1
    19    38    39    1
    20    38    40    1
    21     7     8    1
    22     8     9    1
    23     8    10    1
    24    10    44    1
    25    44    45    1
    26    45    46    1
    27    46    47    1
    28    47    48    1
    29    47    49    1
    30    49    50    1
    31    50    54    1
    32    54    55    1
    33    54    56    1
    34    50    51    1
    35    51    52    1
    36    10    11    1
    37    11    12    1
    38    11    29    1
    39    29    30    1
    40    11    13    1
    41    13    14    1
    42    14    15    1
    43    14    16    1
    44    16    17    2
    45    16    18    1
    46    18    19    1
    47    18    20    1
    48    20    21    1
    49    20    22    1
    50    22    23    1
    51    22    24    1
    52    22     1    1
    53    40    32    1
    54    51    45    1
    55    37    41    1
    56    52    53    1
    57    21    25    1
    58    24    26    1
@<TRIPOS>MOLECULE
*****
 56 58 0 0 0
SMALL
GASTEIGER

@<TRIPOS>ATOM
      1 C         137.3558  138.9939  153.9507 C.3     1  UNL1        0.1953
      2 O         138.2692  138.2364  154.8683 O.3     1  UNL1       -0.4497
      3 C         139.3006  138.1151  155.9506 C.2     1  UNL1        0.3188
      4 O         139.4944  136.6318  156.0622 O.2     1  UNL1       -0.2500
      5 C         140.2459  138.6538  156.9833 C.3     1  UNL1        0.1263
      6 C         140.6018  137.3858  157.2797 C.3     1  UNL1        0.0142
      7 C         140.9177  139.7459  157.7617 C.3     1  UNL1        0.1306
      8 C         141.1829  141.1753  158.1317 C.3     1  UNL1        0.0575
      9 C         142.2144  141.0538  159.2140 C.3     1  UNL1        0.0051
     10 C         140.9892  142.6584  158.0201 C.3     1  UNL1        0.1447
     11 C         140.3747  143.9019  157.4489 C.3     1  UNL1        0.1183
     12 C         141.3712  144.2262  158.5222 C.3     1  UNL1        0.0321
     13 C         139.4613  144.6593  156.5313 C.3     1  UNL1        0.0370
     14 C         138.4299  144.7807  155.4491 C.3     1  UNL1        0.0601
     15 C         138.2361  146.2640  155.3374 C.3     1  UNL1        0.0078
     16 C         137.4847  144.2420  154.4164 C.2     1  UNL1        0.1523
     17 O         136.8702  145.4855  153.8452 O.2     1  UNL1       -0.2960
     18 C         136.8129  143.1498  153.6379 C.3     1  UNL1        0.0869
     19 C         135.8995  143.9073  152.7203 C.3     1  UNL1        0.0104
     20 C         136.5476  141.7205  153.2679 C.3     1  UNL1        0.1451
     21 O         135.5162  141.8420  152.1856 O.3     1  UNL1       -0.3815
     22 C         136.7414  140.2373  153.3795 C.3     1  UNL1        0.1497
     23 C         135.7269  140.5800  152.3291 C.3     1  UNL1        0.0356
     24 O         136.1939  139.0045  152.7236 O.3     1  UNL1       -0.3808
     25 H         135.3162  142.7788  152.0331 H       1  UNL1        0.2105
     26 H         135.5425  139.2581  152.0512 H       1  UNL1        0.2105
     27 C         137.5090  136.8580  152.4795 C.3     1  UNL1        0.0039
     28 C         136.6840  137.9017  153.1723 C.3     1  UNL1        0.0462
     29 O         140.4884  145.3823  157.6620 O.3     1  UNL1       -0.3535
     30 C         140.8424  145.9739  157.2616 C.3     1  UNL1        0.1740
     31 O         141.8311  138.9885  158.6793 O.3     1  UNL1       -0.3323
     32 C         141.3694  138.6156  160.0569 C.3     1  UNL1        0.2375
     33 C         142.3730  138.3887  161.1484 C.3     1  UNL1        0.0910
     34 C         141.9114  138.0158  162.5260 C.3     1  UNL1        0.1246
     35 C         141.9652  137.6494  163.9796 C.3     1  UNL1        0.0324
     36 C         140.4462  137.8698  162.8122 C.3     1  UNL1        0.1623
     37 O         139.9847  137.4968  164.1898 O.3     1  UNL1       -0.3796
     38 C         139.4427  138.0967  161.7207 C.3     1  UNL1        0.1468
     39 C         137.9774  137.9507  162.0069 C.3     1  UNL1        0.0348
     40 O         139.9042  138.4696  160.3431 O.3     1  UNL1       -0.3304
     41 H         140.7542  137.3880  164.7702 H       1  UNL1        0.2105
     42 O         143.3953  138.0345  162.7447 O.3     1  UNL1       -0.3532
     43 C         144.1011  139.3354  162.9885 C.3     1  UNL1        0.1740
     44 O         141.9343  143.1972  159.0527 O.3     1  UNL1       -0.3287
     45 C         141.4598  143.4259  160.4572 C.3     1  UNL1        0.2643
     46 O         139.9911  143.4259  160.7620 O.3     1  UNL1       -0.3311
     47 C         139.5167  143.6547  162.1665 C.3     1  UNL1        0.1194
     48 C         138.0479  143.6547  162.4713 C.3     1  UNL1        0.0322
     49 C         140.5108  143.8834  163.2661 C.3     1  UNL1        0.0482
     50 C         141.9795  143.8834  162.9613 C.3     1  UNL1        0.0921
     51 C         142.4541  143.6547  161.5569 C.3     1  UNL1        0.1815
     52 O         143.9228  143.6547  161.2520 O.3     1  UNL1       -0.3783
     53 H         144.0564  143.4936  160.3049 H       1  UNL1        0.2106
     54 N         142.9737  144.1122  164.0610 N.3     1  UNL1       -0.2692
     55 C         143.2977  143.0063  165.0212 C.3     1  UNL1        0.0897
     56 C         143.6439  145.4469  164.2005 C.3     1  UNL1        0.0897
@<TRIPOS>BOND
     1    27    28    1
     2    28     1    1
     3     1     2    1
     4     2     3    1
     5     3     4    2
     6     3     5    1
     7     5     6    1
     8     5     7    1
     9     7    31    1
    10    31    32    1
    11    32    33    1
    12    33    34    1
    13    34    35    1
    14    34    42    1
    15    42    43    1
    16    34    36    1
    17    36    37    1
    18    36    38    1
    19    38    39    1
    20    38    40    1
    21     7     8    1
    22     8     9    1
    23     8    10    1
    24    10    44    1
    25    44    45    1
    26    45    46    1
    27    46    47    1
    28    47    48    1
    29    47    49    1
    30    49    50    1
    31    50    54    1
    32    54    55    1
    33    54    56    1
    34    50    51    1
    35    51    52    1
    36    10    11    1
    37    11    12    1
    38    11    29    1
    39    29    30    1
    40    11    13    1
    41    13    14    1
    42    14    15    1
    43    14    16    1
    44    16    17    2
    45    16    18    1
    46    18    19    1
    47    18    20    1
    48    20    21    1
    49    20    22    1
    50    22    23    1
    51    22    24    1
    52    22     1    1
    53    40    32    1
    54    51    45    1
    55    37    41    1
    56    52    53    1
    57    21    25    1
    58    24    26    1
@<TRIPOS>MOLECULE
*****
 56 58 0 0 0
SMALL
GASTEIGER

@<TRIPOS>ATOM
      1 C         141.6968  139.4895  164.3253 C.3     1  UNL1        0.1953
      2 O         142.3309  138.7572  163.1800 O.3     1  UNL1       -0.4497
      3 C         142.8207  138.6200  161.7689 C.2     1  UNL1        0.3188
      4 O         143.3628  137.2217  161.7382 O.2     1  UNL1       -0.2500
      5 C         143.0692  139.1051  160.3714 C.3     1  UNL1        0.1263
      6 C         143.6161  137.9054  160.0813 C.3     1  UNL1        0.0142
      7 C         143.0273  140.1164  159.2644 C.3     1  UNL1        0.1306
      8 C         142.7032  141.4537  158.6670 C.3     1  UNL1        0.0575
      9 C         143.1930  141.3164  157.2559 C.3     1  UNL1        0.0051
     10 C         142.1611  142.8519  158.6977 C.3     1  UNL1        0.1447
     11 C         141.5084  144.0343  159.3503 C.3     1  UNL1        0.1183
     12 C         141.8455  144.3167  157.9163 C.3     1  UNL1        0.0321
     13 C         140.8744  144.7666  160.4956 C.3     1  UNL1        0.0370
     14 C         140.3846  144.9039  161.9067 C.3     1  UNL1        0.0601
     15 C         139.8425  146.3022  161.9374 C.3     1  UNL1        0.0078
     16 C         140.1360  144.4188  163.3042 C.2     1  UNL1        0.1523
     17 O         139.4833  145.6012  163.9568 O.2     1  UNL1       -0.2960
     18 C         140.1779  143.4075  164.4113 C.3     1  UNL1        0.0869
     19 C         139.5439  144.1398  165.5566 C.3     1  UNL1        0.0104
     20 C         140.5021  142.0702  165.0086 C.3     1  UNL1        0.1451
     21 O         140.0122  142.2075  166.4197 O.3     1  UNL1       -0.3815
     22 C         141.0441  140.6720  164.9779 C.3     1  UNL1        0.1497
     23 C         140.4936  141.0167  166.3299 C.3     1  UNL1        0.0356
     24 O         141.1839  139.5256  165.9351 O.3     1  UNL1       -0.3808
     25 H         139.6358  143.0924  166.5467 H       1  UNL1        0.2105
     26 H         140.8201  139.7786  166.7979 H       1  UNL1        0.2105
     27 C         143.0188  138.2307  166.1740 C.3     1  UNL1        0.0039
     28 C         141.7387  138.4782  165.4323 C.3     1  UNL1        0.0462
     29 O         141.1020  145.4230  158.9551 O.3     1  UNL1       -0.3535
     30 C         140.4095  145.8180  158.9530 C.3     1  UNL1        0.1740
     31 O         143.6614  139.3840  158.1191 O.3     1  UNL1       -0.3323
     32 C         142.8854  138.3366  157.3771 C.3     1  UNL1        0.2375
     33 C         141.3924  138.4404  157.2758 C.3     1  UNL1        0.0910
     34 C         140.6163  137.3929  156.5338 C.3     1  UNL1        0.1246
     35 C         139.4507  136.6565  155.9431 C.3     1  UNL1        0.0324
     36 C         141.3333  136.2416  155.8930 C.3     1  UNL1        0.1623
     37 O         140.5572  135.1942  155.1511 O.3     1  UNL1       -0.3796
     38 C         142.8262  136.1379  155.9943 C.3     1  UNL1        0.1468
     39 C         143.5431  134.9865  155.3535 C.3     1  UNL1        0.0348
     40 O         143.6023  137.1853  156.7363 O.3     1  UNL1       -0.3304
     41 H         139.6120  135.4103  155.1811 H       1  UNL1        0.2105
     42 O         139.4946  138.2884  156.9694 O.3     1  UNL1       -0.3532
     43 C         139.3121  139.6301  156.3241 C.3     1  UNL1        0.1740
     44 O         142.4097  143.3370  157.3003 O.3     1  UNL1       -0.3287
     45 C         141.2630  143.8036  156.4533 C.3     1  UNL1        0.2643
     46 O         139.8834  143.2677  156.6975 O.3     1  UNL1       -0.3311
     47 C         138.7368  143.7343  155.8504 C.3     1  UNL1        0.1194
     48 C         137.3572  143.1983  156.0946 C.3     1  UNL1        0.0322
     49 C         138.9697  144.7368  154.7592 C.3     1  UNL1        0.0482
     50 C         140.3492  145.2727  154.5150 C.3     1  UNL1        0.0921
     51 C         141.4959  144.8061  155.3620 C.3     1  UNL1        0.1815
     52 O         142.8755  145.3420  155.1179 O.3     1  UNL1       -0.3783
     53 H         143.4945  144.9404  155.7475 H       1  UNL1        0.2106
     54 N         140.5821  146.2752  153.4238 N.3     1  UNL1       -0.2692
     55 C         140.3267  147.7315  153.6763 C.3     1  UNL1        0.0897
     56 C         141.0703  145.8213  152.0801 C.3     1  UNL1        0.0897
@<TRIPOS>BOND
     1    27    28    1
     2    28     1    1
     3     1     2    1
     4     2     3    1
     5     3     4    2
     6     3     5    1
     7     5     6    1
     8     5     7    1
     9     7    31    1
    10    31    32    1
    11    32    33    1
    12    33    34    1
    13    34    35    1
    14    34    42    1
    15    42    43    1
    16    34    36    1
    17    36    37    1
    18    36    38    1
    19    38    39    1
    20    38    40    1
    21     7     8    1
    22     8     9    1
    23     8    10    1
    24    10    44    1
    25    44    45    1
    26    45    46    1
    27    46    47    1
    28    47    48    1
    29    47    49    1
    30    49    50    1
    31    50    54    1
    32    54    55    1
    33    54    56    1
    34    50    51    1
    35    51    52    1
    36    10    11    1
    37    11    12    1
    38    11    29    1
    39    29    30    1
    40    11    13    1
    41    13    14    1
    42    14    15    1
    43    14    16    1
    44    16    17    2
    45    16    18    1
    46    18    19    1
    47    18    20    1
    48    20    21    1
    49    20    22    1
    50    22    23    1
    51    22    24    1
    52    22     1    1
    53    40    32    1
    54    51    45    1
    55    37    41    1
    56    52    53    1
    57    21    25    1
    58    24    26    1
@<TRIPOS>MOLECULE
*****
 56 58 0 0 0
SMALL
GASTEIGER

@<TRIPOS>ATOM
      1 C         138.6723  142.7342  153.8008 C.3     1  UNL1        0.1953
      2 O         139.2731  143.7026  154.7762 O.3     1  UNL1       -0.4497
      3 C         140.1062  144.0824  155.9643 C.2     1  UNL1        0.3188
      4 O         139.9549  145.5739  156.0150 O.2     1  UNL1       -0.2500
      5 C         141.0067  143.7984  157.1299 C.3     1  UNL1        0.1263
      6 C         141.0357  145.1218  157.3951 C.3     1  UNL1        0.0142
      7 C         141.7961  142.9069  158.0421 C.3     1  UNL1        0.1306
      8 C         142.3181  141.5844  158.5202 C.3     1  UNL1        0.0575
      9 C         143.1512  141.9643  159.7083 C.3     1  UNL1        0.0051
     10 C         142.4694  140.0930  158.4695 C.3     1  UNL1        0.1447
     11 C         142.2200  138.7278  157.9001 C.3     1  UNL1        0.1183
     12 C         143.1178  138.6655  159.1001 C.3     1  UNL1        0.0321
     13 C         141.6192  137.7595  156.9247 C.3     1  UNL1        0.0370
     14 C         140.7861  137.3797  155.7366 C.3     1  UNL1        0.0601
     15 C         140.9374  135.8882  155.6859 C.3     1  UNL1        0.0078
     16 C         139.8856  137.6636  154.5710 C.2     1  UNL1        0.1523
     17 O         139.6362  136.2985  154.0016 O.2     1  UNL1       -0.2960
     18 C         139.0962  138.5551  153.6588 C.3     1  UNL1        0.0869
     19 C         138.4954  137.5867  152.6834 C.3     1  UNL1        0.0104
     20 C         138.5742  139.8776  153.1807 C.3     1  UNL1        0.1451
     21 O         137.7411  139.4977  151.9926 O.3     1  UNL1       -0.3815
     22 C         138.4229  141.3691  153.2314 C.3     1  UNL1        0.1497
     23 C         137.6506  140.7784  152.0892 C.3     1  UNL1        0.0356
     24 O         137.7073  142.4290  152.4475 O.3     1  UNL1       -0.3808
     25 H         137.7721  138.5360  151.8702 H       1  UNL1        0.2105
     26 H         137.2184  142.0170  151.7180 H       1  UNL1        0.2105
     27 C         136.4674  143.9848  153.2312 C.3     1  UNL1        0.0039
     28 C         137.8829  143.6257  152.8886 C.3     1  UNL1        0.0462
     29 O         142.6266  137.3171  158.2075 O.3     1  UNL1       -0.3535
     30 C         142.9967  136.7449  157.7939 C.3     1  UNL1        0.1740
     31 O         142.3969  143.8753  159.0175 O.3     1  UNL1       -0.3323
     32 C         141.7108  144.1473  160.3233 C.3     1  UNL1        0.2375
     33 C         140.2416  143.8815  160.4683 C.3     1  UNL1        0.0910
     34 C         139.5555  144.1535  161.7741 C.3     1  UNL1        0.1246
     35 C         138.4660  144.2503  162.8006 C.3     1  UNL1        0.0324
     36 C         140.3385  144.6912  162.9351 C.3     1  UNL1        0.1623
     37 O         139.6523  144.9632  164.2409 O.3     1  UNL1       -0.3796
     38 C         141.8077  144.9570  162.7901 C.3     1  UNL1        0.1468
     39 C         142.5906  145.4948  163.9510 C.3     1  UNL1        0.0348
     40 O         142.4938  144.6851  161.4843 O.3     1  UNL1       -0.3304
     41 H         138.7117  144.7389  164.1647 H       1  UNL1        0.2105
     42 O         138.3941  143.6493  160.9697 O.3     1  UNL1       -0.3532
     43 C         138.5393  142.4089  160.1390 C.3     1  UNL1        0.1740
     44 O         143.3698  139.8090  159.6351 O.3     1  UNL1       -0.3287
     45 C         142.7824  139.4189  160.9590 C.3     1  UNL1        0.2643
     46 O         141.4205  138.7932  161.0201 O.3     1  UNL1       -0.3311
     47 C         140.8332  138.4031  162.3441 C.3     1  UNL1        0.1194
     48 C         139.4712  137.7773  162.4052 C.3     1  UNL1        0.0322
     49 C         141.6076  138.6386  163.6068 C.3     1  UNL1        0.0482
     50 C         142.9695  139.2644  163.5457 C.3     1  UNL1        0.0921
     51 C         143.5570  139.6545  162.2219 C.3     1  UNL1        0.1815
     52 O         144.9188  140.2802  162.1607 O.3     1  UNL1       -0.3783
     53 H         145.1465  140.4695  161.2369 H       1  UNL1        0.2106
     54 N         143.7440  139.4999  164.8086 N.3     1  UNL1       -0.2692
     55 C         145.0418  138.7835  165.0371 C.3     1  UNL1        0.0897
     56 C         143.2206  140.4519  165.8428 C.3     1  UNL1        0.0897
@<TRIPOS>BOND
     1    27    28    1
     2    28     1    1
     3     1     2    1
     4     2     3    1
     5     3     4    2
     6     3     5    1
     7     5     6    1
     8     5     7    1
     9     7    31    1
    10    31    32    1
    11    32    33    1
    12    33    34    1
    13    34    35    1
    14    34    42    1
    15    42    43    1
    16    34    36    1
    17    36    37    1
    18    36    38    1
    19    38    39    1
    20    38    40    1
    21     7     8    1
    22     8     9    1
    23     8    10    1
    24    10    44    1
    25    44    45    1
    26    45    46    1
    27    46    47    1
    28    47    48    1
    29    47    49    1
    30    49    50    1
    31    50    54    1
    32    54    55    1
    33    54    56    1
    34    50    51    1
    35    51    52    1
    36    10    11    1
    37    11    12    1
    38    11    29    1
    39    29    30    1
    40    11    13    1
    41    13    14    1
    42    14    15    1
    43    14    16    1
    44    16    17    2
    45    16    18    1
    46    18    19    1
    47    18    20    1
    48    20    21    1
    49    20    22    1
    50    22    23    1
    51    22    24    1
    52    22     1    1
    53    40    32    1
    54    51    45    1
    55    37    41    1
    56    52    53    1
    57    21    25    1
    58    24    26    1
