@<TRIPOS>MOLECULE
*****
 29 32 0 0 0
SMALL
GASTEIGER

@<TRIPOS>ATOM
      1 C         141.5691  138.5663  160.2243 C.3     1  UNL1        0.1081
      2 C         141.8235  138.0038  161.5913 C.3     1  UNL1        0.0829
      3 N         140.4965  137.7111  162.2265 N.3     1  UNL1       -0.2673
      4 C         139.4219  138.0927  161.2520 C.3     1  UNL1        0.0885
      5 C         140.0848  138.6213  160.0146 C.3     1  UNL1        0.0770
      6 N         139.3860  139.1176  158.7836 N.3     1  UNL1       -0.3207
      7 H         140.0784  139.4178  158.0973 H       1  UNL1        0.1189
      8 H         138.7856  139.9052  159.0277 H       1  UNL1        0.1189
      9 C         142.7093  141.4842  160.2171 C.3     1  UNL1        0.1672
     10 C         143.4855  142.7248  159.8876 C.3     1  UNL1        0.0373
     11 C         144.3924  142.4115  158.7345 C.3     1  UNL1        0.0244
     12 C         144.1768  140.9774  158.3516 C.3     1  UNL1        0.0944
     13 N         143.1366  140.4042  159.2678 N.am    1  UNL1       -0.2685
     14 C         142.6152  138.9981  159.2398 C.2     1  UNL1        0.2286
     15 O         143.1399  138.0237  158.2272 O.2     1  UNL1       -0.2748
     16 N         140.6620  141.2111  162.3930 N.1     1  UNL1       -0.1942
     17 C         141.6857  141.3476  161.3050 C.1     1  UNL1        0.0925
     18 C         140.2818  137.1374  163.5957 C.3     1  UNL1        0.0992
     19 C         140.1852  138.0481  164.7837 C.ar    1  UNL1       -0.0060
     20 C         141.4128  138.7359  165.3033 C.ar    1  UNL1       -0.0014
     21 C         141.3161  139.6465  166.4913 C.ar    1  UNL1        0.0189
     22 C         139.9919  139.8694  167.1597 C.ar    1  UNL1        0.0846
     23 C         138.7643  139.1816  166.6401 C.ar    1  UNL1        0.0189
     24 C         138.8610  138.2710  165.4521 C.ar    1  UNL1       -0.0014
     25 N         139.8952  140.7801  168.3477 N.ar    1  UNL1       -0.2079
     26 C         139.1958  140.4738  169.6389 C.ar    1  UNL1        0.2016
     27 N         139.3494  141.6613  170.5423 N.ar    1  UNL1       -0.2004
     28 C         140.1437  142.7015  169.8095 C.ar    1  UNL1        0.2214
     29 N         140.4810  142.1569  168.4532 N.ar    1  UNL1       -0.1409
@<TRIPOS>BOND
     1    16    17    3
     2     9    17    1
     3     9    10    1
     4    10    11    1
     5    11    12    1
     6    12    13    1
     7    13    14   am
     8    14    15    2
     9     1    14    1
    10     1     2    1
    11     2     3    1
    12     3    18    1
    13    18    19    1
    14    19    20   ar
    15    20    21   ar
    16    21    22   ar
    17    22    25    1
    18    25    26   ar
    19    26    27   ar
    20    27    28   ar
    21    28    29   ar
    22    22    23   ar
    23    23    24   ar
    24     3     4    1
    25     4     5    1
    26     5     6    1
    27    13     9    1
    28     5     1    1
    29    24    19   ar
    30    29    25   ar
    31     6     7    1
    32     6     8    1
@<TRIPOS>MOLECULE
*****
 29 32 0 0 0
SMALL
GASTEIGER

@<TRIPOS>ATOM
      1 C         138.5468  140.9433  161.5425 C.3     1  UNL1        0.1081
      2 C         139.0036  140.4601  162.8870 C.3     1  UNL1        0.0829
      3 N         138.6386  139.0101  163.0071 N.3     1  UNL1       -0.2673
      4 C         137.9563  138.5972  161.7367 C.3     1  UNL1        0.0885
      5 C         137.8995  139.7920  160.8315 C.3     1  UNL1        0.0770
      6 N         137.3006  139.8289  159.4568 N.3     1  UNL1       -0.3207
      7 H         137.3988  140.7669  159.0682 H       1  UNL1        0.1189
      8 H         136.3117  139.5848  159.5100 H       1  UNL1        0.1189
      9 C         141.0363  141.7559  159.8232 C.3     1  UNL1        0.1672
     10 C         142.0263  142.5231  158.9977 C.3     1  UNL1        0.0373
     11 C         141.5169  143.9261  158.8485 C.3     1  UNL1        0.0244
     12 C         140.2121  144.0259  159.5817 C.3     1  UNL1        0.0944
     13 N         139.9151  142.6846  160.1841 N.am    1  UNL1       -0.2685
     14 C         138.7088  142.3337  161.0036 C.2     1  UNL1        0.2286
     15 O         137.6645  143.3733  161.2841 O.2     1  UNL1       -0.2748
     16 N         141.2598  138.8704  160.6135 N.1     1  UNL1       -0.1942
     17 C         141.1480  140.3132  160.2183 C.1     1  UNL1        0.0925
     18 C         138.9086  138.1280  164.1898 C.3     1  UNL1        0.0992
     19 C         139.3446  138.7318  165.4919 C.ar    1  UNL1       -0.0060
     20 C         140.7865  139.0831  165.7101 C.ar    1  UNL1       -0.0014
     21 C         141.2224  139.6869  167.0121 C.ar    1  UNL1        0.0189
     22 C         140.2166  139.9394  168.0959 C.ar    1  UNL1        0.0846
     23 C         138.7748  139.5881  167.8776 C.ar    1  UNL1        0.0189
     24 C         138.3388  138.9843  166.5756 C.ar    1  UNL1       -0.0014
     25 N         140.6526  140.5432  169.3980 N.ar    1  UNL1       -0.2079
     26 C         140.0365  140.2830  170.7407 C.ar    1  UNL1        0.2016
     27 N         140.7844  141.0922  171.7585 N.ar    1  UNL1       -0.2004
     28 C         141.8627  141.8524  171.0448 C.ar    1  UNL1        0.2214
     29 N         141.7812  141.5131  169.5860 N.ar    1  UNL1       -0.1409
@<TRIPOS>BOND
     1    16    17    3
     2     9    17    1
     3     9    10    1
     4    10    11    1
     5    11    12    1
     6    12    13    1
     7    13    14   am
     8    14    15    2
     9     1    14    1
    10     1     2    1
    11     2     3    1
    12     3    18    1
    13    18    19    1
    14    19    20   ar
    15    20    21   ar
    16    21    22   ar
    17    22    25    1
    18    25    26   ar
    19    26    27   ar
    20    27    28   ar
    21    28    29   ar
    22    22    23   ar
    23    23    24   ar
    24     3     4    1
    25     4     5    1
    26     5     6    1
    27    13     9    1
    28     5     1    1
    29    24    19   ar
    30    29    25   ar
    31     6     7    1
    32     6     8    1
@<TRIPOS>MOLECULE
*****
 29 32 0 0 0
SMALL
GASTEIGER

@<TRIPOS>ATOM
      1 C         139.5230  140.2786  161.0065 C.3     1  UNL1        0.1081
      2 C         139.9413  139.6970  162.3244 C.3     1  UNL1        0.0829
      3 N         138.8626  138.7598  162.7808 N.3     1  UNL1       -0.2673
      4 C         137.7777  138.7623  161.7450 C.3     1  UNL1        0.0885
      5 C         138.1858  139.7009  160.6485 C.3     1  UNL1        0.0770
      6 N         137.3954  140.0080  159.4111 N.3     1  UNL1       -0.3207
      7 H         137.9078  140.6784  158.8380 H       1  UNL1        0.1189
      8 H         136.4932  140.4047  159.6736 H       1  UNL1        0.1189
      9 C         139.3905  143.3551  161.5828 C.3     1  UNL1        0.1672
     10 C         139.6001  144.8394  161.5285 C.3     1  UNL1        0.0373
     11 C         140.5544  145.1320  160.4087 C.3     1  UNL1        0.0244
     12 C         140.9344  143.8285  159.7710 C.3     1  UNL1        0.0944
     13 N         140.2151  142.7303  160.4967 N.am    1  UNL1       -0.2685
     14 C         140.3046  141.2648  160.1901 C.2     1  UNL1        0.2286
     15 O         141.1758  140.7854  159.0671 O.2     1  UNL1       -0.2748
     16 N         137.6307  141.8928  163.5232 N.1     1  UNL1       -0.1942
     17 C         138.5106  142.6240  162.5530 C.1     1  UNL1        0.0925
     18 C         138.8680  137.9606  164.0500 C.3     1  UNL1        0.0992
     19 C         139.1713  138.6310  165.3572 C.ar    1  UNL1       -0.0060
     20 C         138.0996  138.7645  166.3981 C.ar    1  UNL1       -0.0014
     21 C         138.4030  139.4348  167.7052 C.ar    1  UNL1        0.0189
     22 C         139.7781  139.9716  167.9714 C.ar    1  UNL1        0.0846
     23 C         140.8498  139.8381  166.9306 C.ar    1  UNL1        0.0189
     24 C         140.5465  139.1677  165.6235 C.ar    1  UNL1       -0.0014
     25 N         140.0814  140.6420  169.2786 N.ar    1  UNL1       -0.2079
     26 C         140.5443  139.9608  170.5323 C.ar    1  UNL1        0.2016
     27 N         140.7241  141.0089  171.5901 N.ar    1  UNL1       -0.2004
     28 C         140.3723  142.3380  170.9902 C.ar    1  UNL1        0.2214
     29 N         139.9751  142.1112  169.5616 N.ar    1  UNL1       -0.1409
@<TRIPOS>BOND
     1    16    17    3
     2     9    17    1
     3     9    10    1
     4    10    11    1
     5    11    12    1
     6    12    13    1
     7    13    14   am
     8    14    15    2
     9     1    14    1
    10     1     2    1
    11     2     3    1
    12     3    18    1
    13    18    19    1
    14    19    20   ar
    15    20    21   ar
    16    21    22   ar
    17    22    25    1
    18    25    26   ar
    19    26    27   ar
    20    27    28   ar
    21    28    29   ar
    22    22    23   ar
    23    23    24   ar
    24     3     4    1
    25     4     5    1
    26     5     6    1
    27    13     9    1
    28     5     1    1
    29    24    19   ar
    30    29    25   ar
    31     6     7    1
    32     6     8    1
@<TRIPOS>MOLECULE
*****
 29 32 0 0 0
SMALL
GASTEIGER

@<TRIPOS>ATOM
      1 C         141.5862  144.5482  160.8786 C.3     1  UNL1        0.1081
      2 C         142.4988  143.4695  161.3821 C.3     1  UNL1        0.0829
      3 N         142.5537  143.5694  162.8777 N.3     1  UNL1       -0.2673
      4 C         141.6751  144.7099  163.2986 C.3     1  UNL1        0.0885
      5 C         141.0771  145.3148  162.0631 C.3     1  UNL1        0.0770
      6 N         140.1354  146.4816  162.0197 N.3     1  UNL1       -0.3207
      7 H         139.8867  146.6820  161.0510 H       1  UNL1        0.1189
      8 H         140.5870  147.2985  162.4308 H       1  UNL1        0.1189
      9 C         139.2805  142.9990  159.4302 C.3     1  UNL1        0.1672
     10 C         138.2995  142.5046  158.4088 C.3     1  UNL1        0.0373
     11 C         138.5447  143.2514  157.1311 C.3     1  UNL1        0.0244
     12 C         139.6772  144.2072  157.3630 C.3     1  UNL1        0.0944
     13 N         140.1320  144.0513  158.7838 N.am    1  UNL1       -0.2685
     14 C         141.2430  144.8137  159.4427 C.2     1  UNL1        0.2286
     15 O         142.0109  145.8416  158.6657 O.2     1  UNL1       -0.2748
     16 N         139.5009  142.0497  162.2675 N.1     1  UNL1       -0.1942
     17 C         139.3907  142.5244  160.8488 C.1     1  UNL1        0.0925
     18 C         143.3478  142.6843  163.7920 C.3     1  UNL1        0.0992
     19 C         142.7922  142.2972  165.1305 C.ar    1  UNL1       -0.0060
     20 C         141.4792  141.5771  165.2177 C.ar    1  UNL1       -0.0014
     21 C         140.9236  141.1901  166.5561 C.ar    1  UNL1        0.0189
     22 C         141.6810  141.5232  167.8074 C.ar    1  UNL1        0.0846
     23 C         142.9939  142.2433  167.7201 C.ar    1  UNL1        0.0189
     24 C         143.5495  142.6303  166.3817 C.ar    1  UNL1       -0.0014
     25 N         141.1253  141.1361  169.1459 N.ar    1  UNL1       -0.2079
     26 C         141.3166  141.8867  170.4304 C.ar    1  UNL1        0.2016
     27 N         140.5903  141.1450  171.5132 N.ar    1  UNL1       -0.2004
     28 C         139.9501  139.9361  170.8978 C.ar    1  UNL1        0.2214
     29 N         140.2808  139.9306  169.4348 N.ar    1  UNL1       -0.1409
@<TRIPOS>BOND
     1    16    17    3
     2     9    17    1
     3     9    10    1
     4    10    11    1
     5    11    12    1
     6    12    13    1
     7    13    14   am
     8    14    15    2
     9     1    14    1
    10     1     2    1
    11     2     3    1
    12     3    18    1
    13    18    19    1
    14    19    20   ar
    15    20    21   ar
    16    21    22   ar
    17    22    25    1
    18    25    26   ar
    19    26    27   ar
    20    27    28   ar
    21    28    29   ar
    22    22    23   ar
    23    23    24   ar
    24     3     4    1
    25     4     5    1
    26     5     6    1
    27    13     9    1
    28     5     1    1
    29    24    19   ar
    30    29    25   ar
    31     6     7    1
    32     6     8    1
@<TRIPOS>MOLECULE
*****
 29 32 0 0 0
SMALL
GASTEIGER

@<TRIPOS>ATOM
      1 C         142.0895  139.7203  161.3541 C.3     1  UNL1        0.1081
      2 C         142.5002  140.1956  162.7162 C.3     1  UNL1        0.0829
      3 N         143.6132  139.3135  163.1989 N.3     1  UNL1       -0.2673
      4 C         143.8905  138.2930  162.1351 C.3     1  UNL1        0.0885
      5 C         142.9489  138.5444  160.9949 C.3     1  UNL1        0.0770
      6 N         142.8788  137.7579  159.7195 N.3     1  UNL1       -0.3207
      7 H         142.1493  138.1452  159.1210 H       1  UNL1        0.1189
      8 H         142.6628  136.7840  159.9321 H       1  UNL1        0.1189
      9 C         139.1019  138.8168  161.6226 C.3     1  UNL1        0.1672
     10 C         137.6198  138.6749  161.4403 C.3     1  UNL1        0.0373
     11 C         137.1919  139.6279  160.3637 C.3     1  UNL1        0.0244
     12 C         138.4096  140.3587  159.8808 C.3     1  UNL1        0.0944
     13 N         139.5900  139.8574  160.6588 N.am    1  UNL1       -0.2685
     14 C         141.0093  140.3162  160.5008 C.2     1  UNL1        0.2286
     15 O         141.3484  141.3709  159.4896 O.2     1  UNL1       -0.2748
     16 N         140.7930  137.2875  163.5725 N.1     1  UNL1       -0.1942
     17 C         139.9474  138.0522  162.5975 C.1     1  UNL1        0.0925
     18 C         144.3242  139.4312  164.5145 C.3     1  UNL1        0.0992
     19 C         143.6017  139.9748  165.7114 C.ar    1  UNL1       -0.0060
     20 C         143.0185  139.0361  166.7257 C.ar    1  UNL1       -0.0014
     21 C         142.2961  139.5798  167.9225 C.ar    1  UNL1        0.0189
     22 C         142.1570  141.0621  168.1052 C.ar    1  UNL1        0.0846
     23 C         142.7402  142.0008  167.0909 C.ar    1  UNL1        0.0189
     24 C         143.4626  141.4571  165.8941 C.ar    1  UNL1       -0.0014
     25 N         141.4345  141.6058  169.3021 N.ar    1  UNL1       -0.2079
     26 C         141.7392  141.2868  170.7358 C.ar    1  UNL1        0.2016
     27 N         140.7736  142.0477  171.5953 N.ar    1  UNL1       -0.2004
     28 C         139.8721  142.8369  170.6928 C.ar    1  UNL1        0.2214
     29 N         140.2806  142.5637  169.2755 N.ar    1  UNL1       -0.1409
@<TRIPOS>BOND
     1    16    17    3
     2     9    17    1
     3     9    10    1
     4    10    11    1
     5    11    12    1
     6    12    13    1
     7    13    14   am
     8    14    15    2
     9     1    14    1
    10     1     2    1
    11     2     3    1
    12     3    18    1
    13    18    19    1
    14    19    20   ar
    15    20    21   ar
    16    21    22   ar
    17    22    25    1
    18    25    26   ar
    19    26    27   ar
    20    27    28   ar
    21    28    29   ar
    22    22    23   ar
    23    23    24   ar
    24     3     4    1
    25     4     5    1
    26     5     6    1
    27    13     9    1
    28     5     1    1
    29    24    19   ar
    30    29    25   ar
    31     6     7    1
    32     6     8    1
@<TRIPOS>MOLECULE
*****
 29 32 0 0 0
SMALL
GASTEIGER

@<TRIPOS>ATOM
      1 C         140.3206  138.7528  160.1337 C.3     1  UNL1        0.1081
      2 C         139.5897  138.3366  161.3756 C.3     1  UNL1        0.0829
      3 N         140.5803  137.7008  162.3054 N.3     1  UNL1       -0.2673
      4 C         141.9234  137.7240  161.6381 C.3     1  UNL1        0.0885
      5 C         141.7630  138.3743  160.2959 C.3     1  UNL1        0.0770
      6 N         142.8534  138.6053  159.2921 N.3     1  UNL1       -0.3207
      7 H         142.4655  139.0653  158.4685 H       1  UNL1        0.1189
      8 H         143.2614  137.7106  159.0213 H       1  UNL1        0.1189
      9 C         140.1242  141.8735  159.9401 C.3     1  UNL1        0.1672
     10 C         139.8495  143.2714  159.4708 C.3     1  UNL1        0.0373
     11 C         139.1947  143.1878  158.1238 C.3     1  UNL1        0.0244
     12 C         139.0648  141.7382  157.7608 C.3     1  UNL1        0.0944
     13 N         139.6393  140.9259  158.8833 N.am    1  UNL1       -0.2685
     14 C         139.7154  139.4289  158.9392 C.2     1  UNL1        0.2286
     15 O         139.1864  138.6080  157.8007 O.2     1  UNL1       -0.2748
     16 N         141.4169  141.1074  162.5368 N.1     1  UNL1       -0.1942
     17 C         140.7705  141.4904  161.2384 C.1     1  UNL1        0.0925
     18 C         140.2804  137.1401  163.6639 C.3     1  UNL1        0.0992
     19 C         140.1813  138.0556  164.8480 C.ar    1  UNL1       -0.0060
     20 C         138.8463  138.3295  165.4747 C.ar    1  UNL1       -0.0014
     21 C         138.7473  139.2450  166.6587 C.ar    1  UNL1        0.0189
     22 C         139.9833  139.8867  167.2161 C.ar    1  UNL1        0.0846
     23 C         141.3182  139.6128  166.5894 C.ar    1  UNL1        0.0189
     24 C         141.4173  138.6973  165.4054 C.ar    1  UNL1       -0.0014
     25 N         139.8842  140.8022  168.4002 N.ar    1  UNL1       -0.2079
     26 C         139.1885  140.4983  169.6939 C.ar    1  UNL1        0.2016
     27 N         139.3377  141.6906  170.5917 N.ar    1  UNL1       -0.2004
     28 C         140.1257  142.7315  169.8529 C.ar    1  UNL1        0.2214
     29 N         140.4634  142.1824  168.4985 N.ar    1  UNL1       -0.1409
@<TRIPOS>BOND
     1    16    17    3
     2     9    17    1
     3     9    10    1
     4    10    11    1
     5    11    12    1
     6    12    13    1
     7    13    14   am
     8    14    15    2
     9     1    14    1
    10     1     2    1
    11     2     3    1
    12     3    18    1
    13    18    19    1
    14    19    20   ar
    15    20    21   ar
    16    21    22   ar
    17    22    25    1
    18    25    26   ar
    19    26    27   ar
    20    27    28   ar
    21    28    29   ar
    22    22    23   ar
    23    23    24   ar
    24     3     4    1
    25     4     5    1
    26     5     6    1
    27    13     9    1
    28     5     1    1
    29    24    19   ar
    30    29    25   ar
    31     6     7    1
    32     6     8    1
@<TRIPOS>MOLECULE
*****
 29 32 0 0 0
SMALL
GASTEIGER

@<TRIPOS>ATOM
      1 C         143.5227  140.3039  160.4348 C.3     1  UNL1        0.1081
      2 C         143.2370  141.6883  160.9368 C.3     1  UNL1        0.0829
      3 N         143.5915  141.7355  162.3935 N.3     1  UNL1       -0.2673
      4 C         144.0963  140.3803  162.7919 C.3     1  UNL1        0.0885
      5 C         144.0538  139.4956  161.5813 C.3     1  UNL1        0.0770
      6 N         144.4695  138.0553  161.5269 N.3     1  UNL1       -0.3207
      7 H         144.3364  137.6986  160.5806 H       1  UNL1        0.1189
      8 H         143.9017  137.5127  162.1777 H       1  UNL1        0.1189
      9 C         140.7860  139.0903  159.5119 C.3     1  UNL1        0.1672
     10 C         139.6876  138.4713  158.6993 C.3     1  UNL1        0.0373
     11 C         140.2117  138.2375  157.3134 C.3     1  UNL1        0.0244
     12 C         141.6340  138.7120  157.2696 C.3     1  UNL1        0.0944
     13 N         141.9889  139.2391  158.6283 N.am    1  UNL1       -0.2685
     14 C         143.3140  139.8140  159.0325 C.2     1  UNL1        0.2286
     15 O         144.4305  139.8990  158.0344 O.2     1  UNL1       -0.2748
     16 N         140.6080  139.8903  162.3979 N.1     1  UNL1       -0.1942
     17 C         140.6970  139.4903  160.9549 C.1     1  UNL1        0.0925
     18 C         143.4636  142.9283  163.2939 C.3     1  UNL1        0.0992
     19 C         142.7541  142.8024  164.6095 C.ar    1  UNL1       -0.0060
     20 C         141.2876  143.1032  164.7025 C.ar    1  UNL1       -0.0014
     21 C         140.5781  142.9773  166.0181 C.ar    1  UNL1        0.0189
     22 C         141.3353  142.5506  167.2407 C.ar    1  UNL1        0.0846
     23 C         142.8018  142.2497  167.1476 C.ar    1  UNL1        0.0189
     24 C         143.5112  142.3757  165.8321 C.ar    1  UNL1       -0.0014
     25 N         140.6258  142.4246  168.5563 N.ar    1  UNL1       -0.2079
     26 C         140.1111  141.1526  169.1623 C.ar    1  UNL1        0.2016
     27 N         139.4736  141.4904  170.4774 N.ar    1  UNL1       -0.2004
     28 C         139.5943  142.9712  170.6842 C.ar    1  UNL1        0.2214
     29 N         140.3064  143.5486  169.4969 N.ar    1  UNL1       -0.1409
@<TRIPOS>BOND
     1    16    17    3
     2     9    17    1
     3     9    10    1
     4    10    11    1
     5    11    12    1
     6    12    13    1
     7    13    14   am
     8    14    15    2
     9     1    14    1
    10     1     2    1
    11     2     3    1
    12     3    18    1
    13    18    19    1
    14    19    20   ar
    15    20    21   ar
    16    21    22   ar
    17    22    25    1
    18    25    26   ar
    19    26    27   ar
    20    27    28   ar
    21    28    29   ar
    22    22    23   ar
    23    23    24   ar
    24     3     4    1
    25     4     5    1
    26     5     6    1
    27    13     9    1
    28     5     1    1
    29    24    19   ar
    30    29    25   ar
    31     6     7    1
    32     6     8    1
@<TRIPOS>MOLECULE
*****
 29 32 0 0 0
SMALL
GASTEIGER

@<TRIPOS>ATOM
      1 C         141.3737  144.2316  161.8537 C.3     1  UNL1        0.1081
      2 C         141.5107  143.3416  160.6540 C.3     1  UNL1        0.0829
      3 N         140.8670  144.0324  159.4884 N.3     1  UNL1       -0.2673
      4 C         140.3322  145.3493  159.9677 C.3     1  UNL1        0.0885
      5 C         140.6453  145.4724  161.4295 C.3     1  UNL1        0.0770
      6 N         140.2921  146.6326  162.3122 N.3     1  UNL1       -0.3207
      7 H         140.6247  146.4528  163.2595 H       1  UNL1        0.1189
      8 H         139.2794  146.7543  162.3248 H       1  UNL1        0.1189
      9 C         139.5822  142.7775  163.9728 C.3     1  UNL1        0.1672
     10 C         139.0756  142.1317  165.2283 C.3     1  UNL1        0.0373
     11 C         140.1692  142.1901  166.2534 C.3     1  UNL1        0.0244
     12 C         141.3516  142.8721  165.6314 C.3     1  UNL1        0.0944
     13 N         140.9889  143.2351  164.2219 N.am    1  UNL1       -0.2685
     14 C         141.8767  143.9331  163.2349 C.2     1  UNL1        0.2286
     15 O         143.2678  144.3328  163.6292 O.2     1  UNL1       -0.2748
     16 N         138.0509  143.0978  161.4129 N.1     1  UNL1       -0.1942
     17 C         138.8166  142.9377  162.6929 C.1     1  UNL1        0.0925
     18 C         140.7744  143.4998  158.0893 C.3     1  UNL1        0.0992
     19 C         139.4855  142.9142  157.5934 C.ar    1  UNL1       -0.0060
     20 C         139.0036  141.5991  158.1303 C.ar    1  UNL1       -0.0014
     21 C         137.7148  141.0135  157.6344 C.ar    1  UNL1        0.0189
     22 C         136.9078  141.7431  156.6017 C.ar    1  UNL1        0.0846
     23 C         137.3896  143.0581  156.0648 C.ar    1  UNL1        0.0189
     24 C         138.6785  143.6437  156.5607 C.ar    1  UNL1       -0.0014
     25 N         135.6189  141.1574  156.1059 N.ar    1  UNL1       -0.2079
     26 C         134.8967  141.5507  154.8513 C.ar    1  UNL1        0.2016
     27 N         133.6574  140.7121  154.7476 N.ar    1  UNL1       -0.2004
     28 C         133.6136  139.8005  155.9380 C.ar    1  UNL1        0.2214
     29 N         134.8258  140.0758  156.7775 N.ar    1  UNL1       -0.1409
@<TRIPOS>BOND
     1    16    17    3
     2     9    17    1
     3     9    10    1
     4    10    11    1
     5    11    12    1
     6    12    13    1
     7    13    14   am
     8    14    15    2
     9     1    14    1
    10     1     2    1
    11     2     3    1
    12     3    18    1
    13    18    19    1
    14    19    20   ar
    15    20    21   ar
    16    21    22   ar
    17    22    25    1
    18    25    26   ar
    19    26    27   ar
    20    27    28   ar
    21    28    29   ar
    22    22    23   ar
    23    23    24   ar
    24     3     4    1
    25     4     5    1
    26     5     6    1
    27    13     9    1
    28     5     1    1
    29    24    19   ar
    30    29    25   ar
    31     6     7    1
    32     6     8    1
@<TRIPOS>MOLECULE
*****
 29 32 0 0 0
SMALL
GASTEIGER

@<TRIPOS>ATOM
      1 C         140.1848  139.1346  160.3077 C.3     1  UNL1        0.1081
      2 C         139.9094  138.0678  161.3256 C.3     1  UNL1        0.0829
      3 N         140.3995  138.5586  162.6557 N.3     1  UNL1       -0.2673
      4 C         140.9777  139.9287  162.4598 C.3     1  UNL1        0.0885
      5 C         140.8451  140.2847  161.0087 C.3     1  UNL1        0.0770
      6 N         141.2939  141.5659  160.3706 N.3     1  UNL1       -0.3207
      7 H         141.0815  141.5417  159.3733 H       1  UNL1        0.1189
      8 H         142.2994  141.6770  160.5015 H       1  UNL1        0.1189
      9 C         142.1998  137.9314  158.2325 C.3     1  UNL1        0.1672
     10 C         142.8489  137.4554  156.9667 C.3     1  UNL1        0.0373
     11 C         141.8986  137.7104  155.8344 C.3     1  UNL1        0.0244
     12 C         140.6624  138.3439  156.4004 C.3     1  UNL1        0.0944
     13 N         140.8485  138.4805  157.8826 N.am    1  UNL1       -0.2685
     14 C         139.8575  139.0637  158.8456 C.2     1  UNL1        0.2286
     15 O         138.5390  139.5762  158.3465 O.2     1  UNL1       -0.2748
     16 N         143.3948  137.8070  160.9815 N.1     1  UNL1       -0.1942
     17 C         142.7973  137.8692  159.6070 C.1     1  UNL1        0.0925
     18 C         140.3244  137.8106  163.9537 C.3     1  UNL1        0.0992
     19 C         140.3364  138.5601  165.2530 C.ar    1  UNL1       -0.0060
     20 C         141.6404  138.9731  165.8686 C.ar    1  UNL1       -0.0014
     21 C         141.6524  139.7225  167.1678 C.ar    1  UNL1        0.0189
     22 C         140.3604  140.0590  167.8515 C.ar    1  UNL1        0.0846
     23 C         139.0564  139.6460  167.2360 C.ar    1  UNL1        0.0189
     24 C         139.0444  138.8965  165.9367 C.ar    1  UNL1       -0.0014
     25 N         140.3724  140.8085  169.1509 N.ar    1  UNL1       -0.2079
     26 C         140.5895  140.2128  170.5103 C.ar    1  UNL1        0.2016
     27 N         140.5207  141.3213  171.5185 N.ar    1  UNL1       -0.2004
     28 C         140.2610  142.6021  170.7821 C.ar    1  UNL1        0.2214
     29 N         140.1694  142.2851  169.3189 N.ar    1  UNL1       -0.1409
@<TRIPOS>BOND
     1    16    17    3
     2     9    17    1
     3     9    10    1
     4    10    11    1
     5    11    12    1
     6    12    13    1
     7    13    14   am
     8    14    15    2
     9     1    14    1
    10     1     2    1
    11     2     3    1
    12     3    18    1
    13    18    19    1
    14    19    20   ar
    15    20    21   ar
    16    21    22   ar
    17    22    25    1
    18    25    26   ar
    19    26    27   ar
    20    27    28   ar
    21    28    29   ar
    22    22    23   ar
    23    23    24   ar
    24     3     4    1
    25     4     5    1
    26     5     6    1
    27    13     9    1
    28     5     1    1
    29    24    19   ar
    30    29    25   ar
    31     6     7    1
    32     6     8    1
