@<TRIPOS>MOLECULE
*****
 32 35 0 0 0
SMALL
GASTEIGER

@<TRIPOS>ATOM
      1 C         138.5757  141.2500  162.6461 C.2     1  UNL1        0.2320
      2 O         137.4806  141.9573  163.3881 O.2     1  UNL1       -0.2744
      3 N         139.4702  140.2867  163.3684 N.am    1  UNL1       -0.2639
      4 H         140.1890  139.8224  162.8814 H       1  UNL1        0.1567
      5 C         139.2697  140.0305  164.8326 C.ar    1  UNL1        0.1655
      6 N         139.9153  140.7858  165.9564 N.ar    1  UNL1       -0.2239
      7 C         139.4330  140.1963  167.2485 C.ar    1  UNL1        0.0913
      8 C         138.4893  139.0766  166.9235 C.ar    1  UNL1        0.0573
      9 S         138.3884  138.9741  165.4304 S.2     1  UNL1       -0.0508
     10 C         139.8254  140.6472  168.6243 C.ar    1  UNL1        0.0403
     11 C         139.0092  140.4836  169.8720 C.ar    1  UNL1        0.1021
     12 N         139.7823  141.0762  171.0127 N.ar    1  UNL1       -0.2269
     13 C         141.0764  141.6060  170.4698 C.ar    1  UNL1        0.1406
     14 N         142.2339  142.2957  171.1290 N.ar    1  UNL1       -0.3374
     15 C         143.4181  142.7202  170.3120 C.ar    1  UNL1        0.0735
     16 C         143.4447  142.4550  168.8358 C.ar    1  UNL1        0.0186
     17 C         142.2872  141.7654  168.1767 C.ar    1  UNL1        0.0046
     18 C         141.1030  141.3409  168.9937 C.ar    1  UNL1        0.0370
     19 H         142.2165  142.4697  172.0978 H       1  UNL1        0.1674
     20 C         138.7763  141.5061  161.1818 C.3     1  UNL1        0.1117
     21 C         141.3940  144.4889  161.2094 C.ar    1  UNL1        0.0641
     22 C         141.2066  145.0434  159.8283 C.ar    1  UNL1        0.0158
     23 C         140.2090  144.4188  158.8983 C.ar    1  UNL1        0.0010
     24 C         139.3989  143.2397  159.3495 C.ar    1  UNL1       -0.0037
     25 C         139.5864  142.6852  160.7306 C.ar    1  UNL1       -0.0118
     26 C         140.5840  143.3098  161.6606 C.ar    1  UNL1        0.0121
     27 N         142.3915  145.1135  162.1393 N.pl3   1  UNL1       -0.2187
     28 H         142.3702  146.0838  162.3045 H       1  UNL1        0.1734
     29 C         144.4516  143.4059  163.4960 C.3     1  UNL1        0.1996
     30 S         143.4216  144.2597  162.8176 S.O2    1  UNL1        0.0558
     31 O         142.8961  144.6886  164.1556 O.2     1  UNL1       -0.1544
     32 O         143.9471  143.8307  161.4798 O.2     1  UNL1       -0.1544
@<TRIPOS>BOND
     1    29    30    1
     2    30    31    2
     3    30    32    2
     4    30    27    1
     5    27    21    1
     6    21    22   ar
     7    22    23   ar
     8    23    24   ar
     9    24    25   ar
    10    25    20    1
    11    20     1    1
    12     1     2    2
    13     1     3   am
    14     3     5    1
    15     5     6   ar
    16     6     7   ar
    17     7    10    1
    18    10    11   ar
    19    11    12   ar
    20    12    13   ar
    21    13    14   ar
    22    14    15   ar
    23    15    16   ar
    24    16    17   ar
    25    17    18   ar
    26     7     8   ar
    27     8     9   ar
    28    25    26   ar
    29    26    21   ar
    30     9     5   ar
    31    18    10   ar
    32    18    13    1
    33    27    28    1
    34     3     4    1
    35    14    19    1
@<TRIPOS>MOLECULE
*****
 32 35 0 0 0
SMALL
GASTEIGER

@<TRIPOS>ATOM
      1 C         142.6615  138.6468  163.4512 C.2     1  UNL1        0.2320
      2 O         143.3545  138.3363  164.7447 O.2     1  UNL1       -0.2744
      3 N         141.2278  139.0880  163.4555 N.am    1  UNL1       -0.2639
      4 H         140.7730  139.2918  162.6065 H       1  UNL1        0.1567
      5 C         140.4872  139.2185  164.7532 C.ar    1  UNL1        0.1655
      6 N         140.9686  139.9451  165.9740 N.ar    1  UNL1       -0.2239
      7 C         139.9141  139.8211  167.0334 C.ar    1  UNL1        0.0913
      8 C         138.7807  139.0178  166.4674 C.ar    1  UNL1        0.0573
      9 S         139.1349  138.6454  165.0582 S.2     1  UNL1       -0.0508
     10 C         139.9810  140.3988  168.4161 C.ar    1  UNL1        0.0403
     11 C         138.9351  140.2580  169.4820 C.ar    1  UNL1        0.1021
     12 N         139.4133  140.9910  170.7002 N.ar    1  UNL1       -0.2269
     13 C         140.7547  141.5848  170.3872 C.ar    1  UNL1        0.1406
     14 N         141.7020  142.4115  171.2052 N.ar    1  UNL1       -0.3374
     15 C         143.0002  142.8722  170.6115 C.ar    1  UNL1        0.0735
     16 C         143.3510  142.5062  169.1998 C.ar    1  UNL1        0.0186
     17 C         142.4037  141.6795  168.3818 C.ar    1  UNL1        0.0046
     18 C         141.1056  141.2188  168.9755 C.ar    1  UNL1        0.0370
     19 H         141.4717  142.6517  172.1317 H       1  UNL1        0.1674
     20 C         143.4021  138.5163  162.1533 C.3     1  UNL1        0.1117
     21 C         144.4426  142.2439  161.2743 C.ar    1  UNL1        0.0641
     22 C         144.4400  142.1929  159.7752 C.ar    1  UNL1        0.0158
     23 C         144.0915  140.9164  159.0687 C.ar    1  UNL1        0.0010
     24 C         143.7455  139.6908  159.8615 C.ar    1  UNL1       -0.0037
     25 C         143.7481  139.7418  161.3607 C.ar    1  UNL1       -0.0118
     26 C         144.0967  141.0184  162.0670 C.ar    1  UNL1        0.0121
     27 N         144.7911  143.5204  161.9807 N.pl3   1  UNL1       -0.2187
     28 H         145.6880  143.9125  161.8750 H       1  UNL1        0.1734
     29 C         142.7554  144.8786  163.7160 C.3     1  UNL1        0.1996
     30 S         143.7732  144.1995  162.8483 S.O2    1  UNL1        0.0558
     31 O         144.5587  143.8183  164.0682 O.2     1  UNL1       -0.1544
     32 O         142.9878  144.5807  161.6286 O.2     1  UNL1       -0.1544
@<TRIPOS>BOND
     1    29    30    1
     2    30    31    2
     3    30    32    2
     4    30    27    1
     5    27    21    1
     6    21    22   ar
     7    22    23   ar
     8    23    24   ar
     9    24    25   ar
    10    25    20    1
    11    20     1    1
    12     1     2    2
    13     1     3   am
    14     3     5    1
    15     5     6   ar
    16     6     7   ar
    17     7    10    1
    18    10    11   ar
    19    11    12   ar
    20    12    13   ar
    21    13    14   ar
    22    14    15   ar
    23    15    16   ar
    24    16    17   ar
    25    17    18   ar
    26     7     8   ar
    27     8     9   ar
    28    25    26   ar
    29    26    21   ar
    30     9     5   ar
    31    18    10   ar
    32    18    13    1
    33    27    28    1
    34     3     4    1
    35    14    19    1
@<TRIPOS>MOLECULE
*****
 32 35 0 0 0
SMALL
GASTEIGER

@<TRIPOS>ATOM
      1 C         139.9865  138.0770  163.4648 C.2     1  UNL1        0.2320
      2 O         140.5695  137.0196  164.3547 O.2     1  UNL1       -0.2744
      3 N         139.2414  139.2334  164.0629 N.am    1  UNL1       -0.2639
      4 H         138.8587  139.9274  163.4788 H       1  UNL1        0.1567
      5 C         139.0792  139.3322  165.5507 C.ar    1  UNL1        0.1655
      6 N         140.0273  140.0056  166.4982 N.ar    1  UNL1       -0.2239
      7 C         139.4746  139.8647  167.8855 C.ar    1  UNL1        0.0913
      8 C         138.1848  139.1042  167.7955 C.ar    1  UNL1        0.0573
      9 S         137.9404  138.7751  166.3525 S.2     1  UNL1       -0.0508
     10 C         140.1015  140.3917  169.1421 C.ar    1  UNL1        0.0403
     11 C         139.5579  140.2351  170.5314 C.ar    1  UNL1        0.1021
     12 N         140.5025  140.9145  171.4780 N.ar    1  UNL1       -0.2269
     13 C         141.6299  141.4909  170.6738 C.ar    1  UNL1        0.1406
     14 N         142.8501  142.2683  171.0696 N.ar    1  UNL1       -0.3374
     15 C         143.8225  142.7225  170.0218 C.ar    1  UNL1        0.0735
     16 C         143.5747  142.3994  168.5781 C.ar    1  UNL1        0.0186
     17 C         142.3544  141.6221  168.1823 C.ar    1  UNL1        0.0046
     18 C         141.3820  141.1678  169.2302 C.ar    1  UNL1        0.0370
     19 H         143.0128  142.4803  172.0172 H       1  UNL1        0.1674
     20 C         140.1486  137.9782  161.9769 C.3     1  UNL1        0.1117
     21 C         143.7346  139.6098  161.4982 C.ar    1  UNL1        0.0641
     22 C         143.8446  139.6185  160.0023 C.ar    1  UNL1        0.0158
     23 C         142.7227  139.0805  159.1645 C.ar    1  UNL1        0.0010
     24 C         141.4907  138.5337  159.8227 C.ar    1  UNL1       -0.0037
     25 C         141.3806  138.5250  161.3187 C.ar    1  UNL1       -0.0118
     26 C         142.5026  139.0630  162.1564 C.ar    1  UNL1        0.0121
     27 N         144.8565  140.1478  162.3360 N.pl3   1  UNL1       -0.2187
     28 H         145.7906  139.9835  162.0720 H       1  UNL1        0.1734
     29 C         144.2539  141.7246  164.8161 C.3     1  UNL1        0.1996
     30 S         144.5552  140.9362  163.5760 S.O2    1  UNL1        0.0558
     31 O         145.0601  139.8030  164.4192 O.2     1  UNL1       -0.1544
     32 O         144.0503  142.0694  162.7329 O.2     1  UNL1       -0.1544
@<TRIPOS>BOND
     1    29    30    1
     2    30    31    2
     3    30    32    2
     4    30    27    1
     5    27    21    1
     6    21    22   ar
     7    22    23   ar
     8    23    24   ar
     9    24    25   ar
    10    25    20    1
    11    20     1    1
    12     1     2    2
    13     1     3   am
    14     3     5    1
    15     5     6   ar
    16     6     7   ar
    17     7    10    1
    18    10    11   ar
    19    11    12   ar
    20    12    13   ar
    21    13    14   ar
    22    14    15   ar
    23    15    16   ar
    24    16    17   ar
    25    17    18   ar
    26     7     8   ar
    27     8     9   ar
    28    25    26   ar
    29    26    21   ar
    30     9     5   ar
    31    18    10   ar
    32    18    13    1
    33    27    28    1
    34     3     4    1
    35    14    19    1
@<TRIPOS>MOLECULE
*****
 32 35 0 0 0
SMALL
GASTEIGER

@<TRIPOS>ATOM
      1 C         140.4249  139.7728  162.7744 C.2     1  UNL1        0.2320
      2 O         141.5664  139.1387  163.5127 O.2     1  UNL1       -0.2744
      3 N         139.1857  140.1790  163.5155 N.am    1  UNL1       -0.2639
      4 H         138.4365  140.5952  163.0310 H       1  UNL1        0.1567
      5 C         139.0879  139.9512  164.9948 C.ar    1  UNL1        0.1655
      6 N         139.7552  140.7708  166.0592 N.ar    1  UNL1       -0.2239
      7 C         139.3853  140.1900  167.3918 C.ar    1  UNL1        0.0913
      8 C         138.4893  139.0113  167.1510 C.ar    1  UNL1        0.0573
      9 S         138.3055  138.8637  165.6697 S.2     1  UNL1       -0.0508
     10 C         139.8328  140.6985  168.7301 C.ar    1  UNL1        0.0403
     11 C         139.0508  140.6241  170.0080 C.ar    1  UNL1        0.1021
     12 N         139.8756  141.2503  171.0932 N.ar    1  UNL1       -0.2269
     13 C         141.1673  141.7116  170.4860 C.ar    1  UNL1        0.1406
     14 N         142.3641  142.3982  171.0743 N.ar    1  UNL1       -0.3374
     15 C         143.5345  142.7438  170.2022 C.ar    1  UNL1        0.0735
     16 C         143.5081  142.4027  168.7417 C.ar    1  UNL1        0.0186
     17 C         142.3112  141.7162  168.1534 C.ar    1  UNL1        0.0046
     18 C         141.1408  141.3706  169.0255 C.ar    1  UNL1        0.0370
     19 H         142.3815  142.6220  172.0329 H       1  UNL1        0.1674
     20 C         140.5227  140.0006  161.2951 C.3     1  UNL1        0.1117
     21 C         142.1230  143.5508  160.5299 C.ar    1  UNL1        0.0641
     22 C         143.2964  143.1563  159.6830 C.ar    1  UNL1        0.0158
     23 C         143.5453  141.7098  159.3734 C.ar    1  UNL1        0.0010
     24 C         142.6207  140.6579  159.9107 C.ar    1  UNL1       -0.0037
     25 C         141.4473  141.0525  160.7577 C.ar    1  UNL1       -0.0118
     26 C         141.1984  142.4990  161.0673 C.ar    1  UNL1        0.0121
     27 N         141.8741  144.9973  160.8396 N.pl3   1  UNL1       -0.2187
     28 H         142.5435  145.6757  160.5930 H       1  UNL1        0.1734
     29 C         139.3363  145.8228  162.2101 C.3     1  UNL1        0.1996
     30 S         140.6052  145.4100  161.5248 S.O2    1  UNL1        0.0558
     31 O         141.3135  145.3925  162.8470 O.2     1  UNL1       -0.1544
     32 O         139.8968  145.4276  160.2027 O.2     1  UNL1       -0.1544
@<TRIPOS>BOND
     1    29    30    1
     2    30    31    2
     3    30    32    2
     4    30    27    1
     5    27    21    1
     6    21    22   ar
     7    22    23   ar
     8    23    24   ar
     9    24    25   ar
    10    25    20    1
    11    20     1    1
    12     1     2    2
    13     1     3   am
    14     3     5    1
    15     5     6   ar
    16     6     7   ar
    17     7    10    1
    18    10    11   ar
    19    11    12   ar
    20    12    13   ar
    21    13    14   ar
    22    14    15   ar
    23    15    16   ar
    24    16    17   ar
    25    17    18   ar
    26     7     8   ar
    27     8     9   ar
    28    25    26   ar
    29    26    21   ar
    30     9     5   ar
    31    18    10   ar
    32    18    13    1
    33    27    28    1
    34     3     4    1
    35    14    19    1
@<TRIPOS>MOLECULE
*****
 32 35 0 0 0
SMALL
GASTEIGER

@<TRIPOS>ATOM
      1 C         138.4128  141.2182  160.7234 C.2     1  UNL1        0.2320
      2 O         137.3536  141.6444  161.6963 O.2     1  UNL1       -0.2744
      3 N         139.3550  140.1068  161.0796 N.am    1  UNL1       -0.2639
      4 H         140.0501  139.8271  160.4411 H       1  UNL1        0.1567
      5 C         139.2381  139.4216  162.4088 C.ar    1  UNL1        0.1655
      6 N         139.1540  140.0978  163.7451 N.ar    1  UNL1       -0.2239
      7 C         139.0487  139.0340  164.7972 C.ar    1  UNL1        0.0913
      8 C         139.0677  137.7002  164.1113 C.ar    1  UNL1        0.0573
      9 S         139.1848  137.9397  162.6352 S.2     1  UNL1       -0.0508
     10 C         138.9429  139.2636  166.2758 C.ar    1  UNL1        0.0403
     11 C         137.8076  138.8322  167.1560 C.ar    1  UNL1        0.1021
     12 N         138.1170  139.2669  168.5579 N.ar    1  UNL1       -0.2269
     13 C         139.4435  139.9670  168.5441 C.ar    1  UNL1        0.1406
     14 N         140.2526  140.6061  169.6336 N.ar    1  UNL1       -0.3374
     15 C         141.5720  141.2431  169.3126 C.ar    1  UNL1        0.0735
     16 C         142.0825  141.2411  167.9021 C.ar    1  UNL1        0.0186
     17 C         141.2735  140.6020  166.8126 C.ar    1  UNL1        0.0046
     18 C         139.9540  139.9650  167.1336 C.ar    1  UNL1        0.0370
     19 H         139.9175  140.6074  170.5593 H       1  UNL1        0.1674
     20 C         138.5297  141.9034  159.3941 C.3     1  UNL1        0.1117
     21 C         141.1404  144.7667  160.2519 C.ar    1  UNL1        0.0641
     22 C         141.3022  145.4145  158.9088 C.ar    1  UNL1        0.0158
     23 C         140.5399  144.8920  157.7273 C.ar    1  UNL1        0.0010
     24 C         139.6156  143.7215  157.8891 C.ar    1  UNL1       -0.0037
     25 C         139.4538  143.0738  159.2324 C.ar    1  UNL1       -0.0118
     26 C         140.2162  143.5964  160.4138 C.ar    1  UNL1        0.0121
     27 N         141.9027  145.2893  161.4334 N.pl3   1  UNL1       -0.2187
     28 H         142.0066  146.2598  161.5621 H       1  UNL1        0.1734
     29 C         143.1110  143.3770  163.4041 C.3     1  UNL1        0.1996
     30 S         142.5069  144.3332  162.4187 S.O2    1  UNL1        0.0558
     31 O         141.4729  144.7246  163.4325 O.2     1  UNL1       -0.1544
     32 O         143.5408  143.9416  161.4049 O.2     1  UNL1       -0.1544
@<TRIPOS>BOND
     1    29    30    1
     2    30    31    2
     3    30    32    2
     4    30    27    1
     5    27    21    1
     6    21    22   ar
     7    22    23   ar
     8    23    24   ar
     9    24    25   ar
    10    25    20    1
    11    20     1    1
    12     1     2    2
    13     1     3   am
    14     3     5    1
    15     5     6   ar
    16     6     7   ar
    17     7    10    1
    18    10    11   ar
    19    11    12   ar
    20    12    13   ar
    21    13    14   ar
    22    14    15   ar
    23    15    16   ar
    24    16    17   ar
    25    17    18   ar
    26     7     8   ar
    27     8     9   ar
    28    25    26   ar
    29    26    21   ar
    30     9     5   ar
    31    18    10   ar
    32    18    13    1
    33    27    28    1
    34     3     4    1
    35    14    19    1
@<TRIPOS>MOLECULE
*****
 32 35 0 0 0
SMALL
GASTEIGER

@<TRIPOS>ATOM
      1 C         143.8507  141.4862  162.0602 C.2     1  UNL1        0.2320
      2 O         144.7122  141.8469  163.2340 O.2     1  UNL1       -0.2744
      3 N         142.7058  140.5330  162.2350 N.am    1  UNL1       -0.2639
      4 H         142.1403  140.2963  161.4646 H       1  UNL1        0.1567
      5 C         142.4223  139.9405  163.5834 C.ar    1  UNL1        0.1655
      6 N         141.4669  140.4859  164.6031 N.ar    1  UNL1       -0.2239
      7 C         141.4986  139.5810  165.7989 C.ar    1  UNL1        0.0913
      8 C         142.4737  138.4763  165.5185 C.ar    1  UNL1        0.0573
      9 S         143.0446  138.6984  164.1492 S.2     1  UNL1       -0.0508
     10 C         140.6961  139.7510  167.0548 C.ar    1  UNL1        0.0403
     11 C         139.2191  139.5295  167.1941 C.ar    1  UNL1        0.1021
     12 N         138.8400  139.8139  168.6172 N.ar    1  UNL1       -0.2269
     13 C         140.0827  140.2112  169.3575 C.ar    1  UNL1        0.1406
     14 N         140.3178  140.6033  170.7860 N.ar    1  UNL1       -0.3374
     15 C         141.7001  140.9566  171.2490 C.ar    1  UNL1        0.0735
     16 C         142.8473  140.9178  170.2833 C.ar    1  UNL1        0.0186
     17 C         142.6122  140.5256  168.8547 C.ar    1  UNL1        0.0046
     18 C         141.2298  140.1723  168.3918 C.ar    1  UNL1        0.0370
     19 H         139.5649  140.6288  171.4198 H       1  UNL1        0.1674
     20 C         144.1341  142.0788  160.7117 C.3     1  UNL1        0.1117
     21 C         141.4315  144.9747  160.4668 C.ar    1  UNL1        0.0641
     22 C         141.3546  145.1658  158.9811 C.ar    1  UNL1        0.0158
     23 C         142.2041  144.3279  158.0721 C.ar    1  UNL1        0.0010
     24 C         143.1307  143.2988  158.6490 C.ar    1  UNL1       -0.0037
     25 C         143.2076  143.1078  160.1348 C.ar    1  UNL1       -0.0118
     26 C         142.3580  143.9457  161.0437 C.ar    1  UNL1        0.0121
     27 N         140.5819  145.8126  161.3758 N.pl3   1  UNL1       -0.2187
     28 H         140.4270  146.7623  161.1679 H       1  UNL1        0.1734
     29 C         139.3549  144.5943  163.8274 C.3     1  UNL1        0.1996
     30 S         139.9684  145.2034  162.6015 S.O2    1  UNL1        0.0558
     31 O         141.1208  145.6985  163.4244 O.2     1  UNL1       -0.1544
     32 O         138.8160  144.7084  161.7788 O.2     1  UNL1       -0.1544
@<TRIPOS>BOND
     1    29    30    1
     2    30    31    2
     3    30    32    2
     4    30    27    1
     5    27    21    1
     6    21    22   ar
     7    22    23   ar
     8    23    24   ar
     9    24    25   ar
    10    25    20    1
    11    20     1    1
    12     1     2    2
    13     1     3   am
    14     3     5    1
    15     5     6   ar
    16     6     7   ar
    17     7    10    1
    18    10    11   ar
    19    11    12   ar
    20    12    13   ar
    21    13    14   ar
    22    14    15   ar
    23    15    16   ar
    24    16    17   ar
    25    17    18   ar
    26     7     8   ar
    27     8     9   ar
    28    25    26   ar
    29    26    21   ar
    30     9     5   ar
    31    18    10   ar
    32    18    13    1
    33    27    28    1
    34     3     4    1
    35    14    19    1
@<TRIPOS>MOLECULE
*****
 32 35 0 0 0
SMALL
GASTEIGER

@<TRIPOS>ATOM
      1 C         138.4020  142.7853  163.5054 C.2     1  UNL1        0.2320
      2 O         137.3554  142.9300  162.4407 O.2     1  UNL1       -0.2744
      3 N         139.7413  143.4387  163.3341 N.am    1  UNL1       -0.2639
      4 H         140.4283  143.3437  164.0329 H       1  UNL1        0.1567
      5 C         140.0340  144.2367  162.0983 C.ar    1  UNL1        0.1655
      6 N         140.6567  143.7136  160.8378 N.ar    1  UNL1       -0.2239
      7 C         140.7629  144.8515  159.8663 C.ar    1  UNL1        0.0913
      8 C         140.2059  146.0780  160.5263 C.ar    1  UNL1        0.0573
      9 S         139.7554  145.6980  161.9057 S.2     1  UNL1       -0.0508
     10 C         141.3271  144.7763  158.4785 C.ar    1  UNL1        0.0403
     11 C         142.4797  143.9222  158.0405 C.ar    1  UNL1        0.1021
     12 N         142.7026  144.1600  156.5763 N.ar    1  UNL1       -0.2269
     13 C         141.6878  145.1611  156.1095 C.ar    1  UNL1        0.1406
     14 N         141.4279  145.7750  154.7658 N.ar    1  UNL1       -0.3374
     15 C         140.3179  146.7698  154.5977 C.ar    1  UNL1        0.0735
     16 C         139.4678  147.1506  155.7734 C.ar    1  UNL1        0.0186
     17 C         139.7276  146.5367  157.1171 C.ar    1  UNL1        0.0046
     18 C         140.8376  145.5419  157.2851 C.ar    1  UNL1        0.0370
     19 H         141.9859  145.5250  153.9942 H       1  UNL1        0.1674
     20 C         138.1094  141.9873  164.7413 C.3     1  UNL1        0.1117
     21 C         138.7377  138.2912  163.4397 C.ar    1  UNL1        0.0641
     22 C         138.6898  137.5249  164.7283 C.ar    1  UNL1        0.0158
     23 C         138.4484  138.2460  166.0212 C.ar    1  UNL1        0.0010
     24 C         138.2549  139.7335  166.0256 C.ar    1  UNL1       -0.0037
     25 C         138.3028  140.4998  164.7369 C.ar    1  UNL1       -0.0118
     26 C         138.5443  139.7786  163.4440 C.ar    1  UNL1        0.0121
     27 N         138.9792  137.5701  162.1468 N.pl3   1  UNL1       -0.2187
     28 H         138.4533  136.7679  161.9249 H       1  UNL1        0.1734
     29 C         141.0644  138.5723  160.2369 C.3     1  UNL1        0.1996
     30 S         140.0218  138.0711  161.1919 S.O2    1  UNL1        0.0558
     31 O         138.9471  138.6657  160.3305 O.2     1  UNL1       -0.1544
     32 O         141.0964  137.4767  162.0531 O.2     1  UNL1       -0.1544
@<TRIPOS>BOND
     1    29    30    1
     2    30    31    2
     3    30    32    2
     4    30    27    1
     5    27    21    1
     6    21    22   ar
     7    22    23   ar
     8    23    24   ar
     9    24    25   ar
    10    25    20    1
    11    20     1    1
    12     1     2    2
    13     1     3   am
    14     3     5    1
    15     5     6   ar
    16     6     7   ar
    17     7    10    1
    18    10    11   ar
    19    11    12   ar
    20    12    13   ar
    21    13    14   ar
    22    14    15   ar
    23    15    16   ar
    24    16    17   ar
    25    17    18   ar
    26     7     8   ar
    27     8     9   ar
    28    25    26   ar
    29    26    21   ar
    30     9     5   ar
    31    18    10   ar
    32    18    13    1
    33    27    28    1
    34     3     4    1
    35    14    19    1
@<TRIPOS>MOLECULE
*****
 32 35 0 0 0
SMALL
GASTEIGER

@<TRIPOS>ATOM
      1 C         139.4374  138.1600  162.8061 C.2     1  UNL1        0.2320
      2 O         140.5945  137.2558  162.5005 O.2     1  UNL1       -0.2744
      3 N         138.8860  139.0590  161.7394 N.am    1  UNL1       -0.2639
      4 H         138.1265  139.6525  161.9400 H       1  UNL1        0.1567
      5 C         139.4918  139.0538  160.3673 C.ar    1  UNL1        0.1655
      6 N         139.2685  138.0147  159.3088 N.ar    1  UNL1       -0.2239
      7 C         140.0659  138.4054  158.1000 C.ar    1  UNL1        0.0913
      8 C         140.7820  139.6861  158.4112 C.ar    1  UNL1        0.0573
      9 S         140.4272  140.0869  159.8125 S.2     1  UNL1       -0.0508
     10 C         140.1350  137.6484  156.8068 C.ar    1  UNL1        0.0403
     11 C         139.0688  137.6046  155.7527 C.ar    1  UNL1        0.1021
     12 N         139.5574  136.7315  154.6352 N.ar    1  UNL1       -0.2269
     13 C         140.9256  136.2356  154.9986 C.ar    1  UNL1        0.1406
     14 N         141.8926  135.3413  154.2809 N.ar    1  UNL1       -0.3374
     15 C         143.2165  135.0138  154.9052 C.ar    1  UNL1        0.0735
     16 C         143.5735  135.5805  156.2474 C.ar    1  UNL1        0.0186
     17 C         142.6066  136.4748  156.9652 C.ar    1  UNL1        0.0046
     18 C         141.2827  136.8024  156.3408 C.ar    1  UNL1        0.0370
     19 H         141.6582  134.9694  153.4000 H       1  UNL1        0.1674
     20 C         138.8316  138.1652  164.1783 C.3     1  UNL1        0.1117
     21 C         139.3649  140.0253  167.6433 C.ar    1  UNL1        0.0641
     22 C         140.1319  141.2357  167.2001 C.ar    1  UNL1        0.0158
     23 C         140.4656  141.4227  165.7497 C.ar    1  UNL1        0.0010
     24 C         140.0321  140.3992  164.7424 C.ar    1  UNL1       -0.0037
     25 C         139.2650  139.1887  165.1856 C.ar    1  UNL1       -0.0118
     26 C         138.9314  139.0018  166.6361 C.ar    1  UNL1        0.0121
     27 N         139.0312  139.8383  169.0937 N.pl3   1  UNL1       -0.2187
     28 H         138.2231  139.3392  169.3525 H       1  UNL1        0.1734
     29 C         140.8267  140.9852  171.2059 C.3     1  UNL1        0.1996
     30 S         139.9289  140.4118  170.1498 S.O2    1  UNL1        0.0558
     31 O         140.9405  139.3395  169.8721 O.2     1  UNL1       -0.1544
     32 O         138.9174  141.4840  170.4274 O.2     1  UNL1       -0.1544
@<TRIPOS>BOND
     1    29    30    1
     2    30    31    2
     3    30    32    2
     4    30    27    1
     5    27    21    1
     6    21    22   ar
     7    22    23   ar
     8    23    24   ar
     9    24    25   ar
    10    25    20    1
    11    20     1    1
    12     1     2    2
    13     1     3   am
    14     3     5    1
    15     5     6   ar
    16     6     7   ar
    17     7    10    1
    18    10    11   ar
    19    11    12   ar
    20    12    13   ar
    21    13    14   ar
    22    14    15   ar
    23    15    16   ar
    24    16    17   ar
    25    17    18   ar
    26     7     8   ar
    27     8     9   ar
    28    25    26   ar
    29    26    21   ar
    30     9     5   ar
    31    18    10   ar
    32    18    13    1
    33    27    28    1
    34     3     4    1
    35    14    19    1
@<TRIPOS>MOLECULE
*****
 32 35 0 0 0
SMALL
GASTEIGER

@<TRIPOS>ATOM
      1 C         142.0655  137.6825  158.1158 C.2     1  UNL1        0.2320
      2 O         140.6238  137.9650  157.8132 O.2     1  UNL1       -0.2744
      3 N         142.6416  138.0658  159.4466 N.am    1  UNL1       -0.2639
      4 H         143.5879  137.8803  159.6452 H       1  UNL1        0.1567
      5 C         141.7761  138.7316  160.4748 C.ar    1  UNL1        0.1655
      6 N         141.0397  140.0270  160.3024 N.ar    1  UNL1       -0.2239
      7 C         140.3034  140.3150  161.5770 C.ar    1  UNL1        0.0913
      8 C         140.5847  139.1976  162.5374 C.ar    1  UNL1        0.0573
      9 S         141.4948  138.2190  161.8562 S.2     1  UNL1       -0.0508
     10 C         139.4378  141.5105  161.8445 C.ar    1  UNL1        0.0403
     11 C         138.3542  142.0327  160.9483 C.ar    1  UNL1        0.1021
     12 N         137.7506  143.2386  161.6050 N.ar    1  UNL1       -0.2269
     13 C         138.4611  143.4618  162.9071 C.ar    1  UNL1        0.1406
     14 N         138.2933  144.4995  163.9771 N.ar    1  UNL1       -0.3374
     15 C         139.1682  144.4692  165.1951 C.ar    1  UNL1        0.0735
     16 C         140.2110  143.4011  165.3431 C.ar    1  UNL1        0.0186
     17 C         140.3788  142.3634  164.2731 C.ar    1  UNL1        0.0046
     18 C         139.5039  142.3937  163.0551 C.ar    1  UNL1        0.0370
     19 H         137.6088  145.2005  163.8800 H       1  UNL1        0.1674
     20 C         142.9311  137.0166  157.0875 C.3     1  UNL1        0.1117
     21 C         143.0086  133.0560  156.8464 C.ar    1  UNL1        0.0641
     22 C         142.0126  132.8192  155.7501 C.ar    1  UNL1        0.0158
     23 C         141.3228  133.9815  155.0995 C.ar    1  UNL1        0.0010
     24 C         141.6290  135.3807  155.5453 C.ar    1  UNL1       -0.0037
     25 C         142.6250  135.6175  156.6417 C.ar    1  UNL1       -0.0118
     26 C         143.3148  134.4551  157.2922 C.ar    1  UNL1        0.0121
     27 N         143.6984  131.8937  157.4970 N.pl3   1  UNL1       -0.2187
     28 H         143.7663  131.8479  158.4781 H       1  UNL1        0.1734
     29 C         144.8713  129.7089  155.8085 C.3     1  UNL1        0.1996
     30 S         144.2848  130.8013  156.6528 S.O2    1  UNL1        0.0558
     31 O         145.3549  131.7406  156.1806 O.2     1  UNL1       -0.1544
     32 O         143.2149  129.8620  157.1249 O.2     1  UNL1       -0.1544
@<TRIPOS>BOND
     1    29    30    1
     2    30    31    2
     3    30    32    2
     4    30    27    1
     5    27    21    1
     6    21    22   ar
     7    22    23   ar
     8    23    24   ar
     9    24    25   ar
    10    25    20    1
    11    20     1    1
    12     1     2    2
    13     1     3   am
    14     3     5    1
    15     5     6   ar
    16     6     7   ar
    17     7    10    1
    18    10    11   ar
    19    11    12   ar
    20    12    13   ar
    21    13    14   ar
    22    14    15   ar
    23    15    16   ar
    24    16    17   ar
    25    17    18   ar
    26     7     8   ar
    27     8     9   ar
    28    25    26   ar
    29    26    21   ar
    30     9     5   ar
    31    18    10   ar
    32    18    13    1
    33    27    28    1
    34     3     4    1
    35    14    19    1
