@<TRIPOS>MOLECULE
*****
 31 35 0 0 0
SMALL
GASTEIGER

@<TRIPOS>ATOM
      1 C         140.1544  143.9423  161.0163 C.ar    1  UNL1        0.0670
      2 C         140.8965  145.1454  160.5144 C.ar    1  UNL1        0.0191
      3 C         140.8725  145.4859  159.0538 C.ar    1  UNL1        0.0203
      4 C         140.1066  144.6233  158.0951 C.ar    1  UNL1        0.0795
      5 C         139.3645  143.4202  158.5970 C.ar    1  UNL1        0.0396
      6 C         138.7015  142.7617  157.4236 C.ar    1  UNL1        0.1216
      7 N         139.0338  143.5579  156.1965 N.ar    1  UNL1       -0.1677
      8 N         139.9022  144.7084  156.6114 N.ar    1  UNL1       -0.2495
      9 C         139.3884  143.0797  160.0576 C.ar    1  UNL1        0.0207
     10 O         137.7110  144.3849  162.6998 O.2     1  UNL1       -0.2665
     11 C         138.9566  143.8231  163.3188 C.ar    1  UNL1        0.2679
     12 C         138.9805  143.4826  164.7794 C.ar    1  UNL1        0.0980
     13 C         140.2260  142.9208  165.3983 C.ar    1  UNL1        0.1453
     14 C         141.4477  142.6996  164.5566 C.ar    1  UNL1        0.0561
     15 C         141.4238  143.0401  163.0959 C.ar    1  UNL1        0.0860
     16 N         140.1783  143.6018  162.4770 N.ar    1  UNL1       -0.2729
     17 O         140.2499  142.5804  166.8590 O.3     1  UNL1       -0.4704
     18 C         140.6393  141.2010  167.3012 C.3     1  UNL1        0.2320
     19 C         140.0453  140.0009  166.6251 C.ar    1  UNL1        0.0212
     20 C         140.8449  139.2398  165.6096 C.ar    1  UNL1       -0.0007
     21 C         140.2509  138.0398  164.9335 C.ar    1  UNL1       -0.0002
     22 C         138.8573  137.6009  165.2730 C.ar    1  UNL1       -0.0000
     23 C         138.0577  138.3620  166.2885 C.ar    1  UNL1       -0.0002
     24 C         138.6517  139.5620  166.9646 C.ar    1  UNL1       -0.0007
     25 C         140.4670  145.7594  155.7025 C.3     1  UNL1        0.1430
     26 C         139.8484  147.1253  155.6598 C.3     1  UNL1        0.0788
     27 C         139.9187  148.0896  154.5129 C.3     1  UNL1        0.0192
     28 C         139.1647  149.3269  154.9008 C.3     1  UNL1        0.0185
     29 C         138.6284  149.1274  156.2875 C.3     1  UNL1        0.0686
     30 N         139.0510  147.7667  156.7565 N.3     1  UNL1       -0.2969
     31 H         138.2280  147.2006  156.9626 H       1  UNL1        0.1233
@<TRIPOS>BOND
     1    10    11    2
     2    11    12   ar
     3    12    13   ar
     4    13    17    1
     5    17    18    1
     6    18    19    1
     7    19    20   ar
     8    20    21   ar
     9    21    22   ar
    10    22    23   ar
    11    23    24   ar
    12    13    14   ar
    13    14    15   ar
    14    15    16   ar
    15    16     1    1
    16     1     2   ar
    17     2     3   ar
    18     3     4   ar
    19     4     5   ar
    20     5     6   ar
    21     6     7   ar
    22     7     8   ar
    23     8    25    1
    24    26    25    1
    25    26    27    1
    26    27    28    1
    27    28    29    1
    28    29    30    1
    29     5     9   ar
    30    16    11   ar
    31     9     1   ar
    32    24    19   ar
    33     8     4   ar
    34    30    26    1
    35    30    31    1
@<TRIPOS>MOLECULE
*****
 31 35 0 0 0
SMALL
GASTEIGER

@<TRIPOS>ATOM
      1 C         139.3353  139.8049  163.1385 C.ar    1  UNL1        0.0670
      2 C         140.5430  140.4811  163.7163 C.ar    1  UNL1        0.0191
      3 C         140.7423  140.5188  165.2025 C.ar    1  UNL1        0.0203
      4 C         139.7338  139.8802  166.1109 C.ar    1  UNL1        0.0795
      5 C         138.5260  139.2040  165.5330 C.ar    1  UNL1        0.0396
      6 C         137.7085  138.6651  166.6693 C.ar    1  UNL1        0.1216
      7 N         138.4110  139.0082  167.9495 N.ar    1  UNL1       -0.1677
      8 N         139.6627  139.7592  167.6044 N.ar    1  UNL1       -0.2495
      9 C         138.3267  139.1663  164.0468 C.ar    1  UNL1        0.0207
     10 O         137.5248  141.7988  161.8169 O.2     1  UNL1       -0.2665
     11 C         138.2307  140.7642  160.9914 C.ar    1  UNL1        0.2679
     12 C         138.0314  140.7266  159.5052 C.ar    1  UNL1        0.0980
     13 C         138.7373  139.6920  158.6797 C.ar    1  UNL1        0.1453
     14 C         139.6426  138.6951  159.3405 C.ar    1  UNL1        0.0561
     15 C         139.8419  138.7327  160.8268 C.ar    1  UNL1        0.0860
     16 N         139.1360  139.7673  161.6522 N.ar    1  UNL1       -0.2729
     17 O         138.5380  139.6544  157.1935 O.3     1  UNL1       -0.4704
     18 C         138.1662  140.9058  156.4548 C.3     1  UNL1        0.2320
     19 C         136.8681  140.9773  155.7065 C.ar    1  UNL1        0.0212
     20 C         135.5747  140.7232  156.4224 C.ar    1  UNL1       -0.0007
     21 C         134.2767  140.7948  155.6740 C.ar    1  UNL1       -0.0002
     22 C         134.2721  141.1205  154.2098 C.ar    1  UNL1       -0.0000
     23 C         135.5655  141.3745  153.4939 C.ar    1  UNL1       -0.0002
     24 C         136.8635  141.3030  154.2423 C.ar    1  UNL1       -0.0007
     25 C         140.6670  140.2951  168.5811 C.3     1  UNL1        0.1430
     26 C         140.4049  141.5896  169.2921 C.3     1  UNL1        0.0788
     27 C         140.9084  142.9406  168.8781 C.3     1  UNL1        0.0192
     28 C         140.4079  143.9464  169.8720 C.3     1  UNL1        0.0185
     29 C         139.5951  143.2170  170.9004 C.3     1  UNL1        0.0686
     30 N         139.5933  141.7605  170.5420 N.3     1  UNL1       -0.2969
     31 H         138.6369  141.4453  170.3795 H       1  UNL1        0.1233
@<TRIPOS>BOND
     1    10    11    2
     2    11    12   ar
     3    12    13   ar
     4    13    17    1
     5    17    18    1
     6    18    19    1
     7    19    20   ar
     8    20    21   ar
     9    21    22   ar
    10    22    23   ar
    11    23    24   ar
    12    13    14   ar
    13    14    15   ar
    14    15    16   ar
    15    16     1    1
    16     1     2   ar
    17     2     3   ar
    18     3     4   ar
    19     4     5   ar
    20     5     6   ar
    21     6     7   ar
    22     7     8   ar
    23     8    25    1
    24    26    25    1
    25    26    27    1
    26    27    28    1
    27    28    29    1
    28    29    30    1
    29     5     9   ar
    30    16    11   ar
    31     9     1   ar
    32    24    19   ar
    33     8     4   ar
    34    30    26    1
    35    30    31    1
@<TRIPOS>MOLECULE
*****
 31 35 0 0 0
SMALL
GASTEIGER

@<TRIPOS>ATOM
      1 C         138.7872  142.4022  158.7422 C.ar    1  UNL1        0.0670
      2 C         139.8624  143.4460  158.8084 C.ar    1  UNL1        0.0191
      3 C         139.9521  144.4989  157.7438 C.ar    1  UNL1        0.0203
      4 C         138.9666  144.5079  156.6130 C.ar    1  UNL1        0.0795
      5 C         137.8914  143.4641  156.5468 C.ar    1  UNL1        0.0396
      6 C         137.0673  143.7246  155.3209 C.ar    1  UNL1        0.1216
      7 N         137.6332  144.9295  154.6294 N.ar    1  UNL1       -0.1677
      8 N         138.8070  145.4136  155.4280 N.ar    1  UNL1       -0.2495
      9 C         137.8017  142.4113  157.6114 C.ar    1  UNL1        0.0207
     10 O         137.6605  143.0863  161.4372 O.2     1  UNL1       -0.2665
     11 C         138.1342  141.6913  161.1544 C.ar    1  UNL1        0.2679
     12 C         138.0444  140.6385  162.2190 C.ar    1  UNL1        0.0980
     13 C         138.5181  139.2436  161.9362 C.ar    1  UNL1        0.1453
     14 C         139.0814  138.9016  160.5887 C.ar    1  UNL1        0.0561
     15 C         139.1712  139.9545  159.5241 C.ar    1  UNL1        0.0860
     16 N         138.6975  141.3493  159.8069 N.ar    1  UNL1       -0.2729
     17 O         138.4284  138.1907  163.0008 O.3     1  UNL1       -0.4704
     18 C         139.6761  137.5365  163.5156 C.3     1  UNL1        0.2320
     19 C         140.4679  138.1883  164.6103 C.ar    1  UNL1        0.0212
     20 C         141.9378  137.9172  164.7362 C.ar    1  UNL1       -0.0007
     21 C         142.7294  138.5690  165.8309 C.ar    1  UNL1       -0.0002
     22 C         142.0513  139.4919  166.7996 C.ar    1  UNL1       -0.0000
     23 C         140.5814  139.7630  166.6736 C.ar    1  UNL1       -0.0002
     24 C         139.7897  139.1112  165.5790 C.ar    1  UNL1       -0.0007
     25 C         139.6697  146.5958  155.0992 C.3     1  UNL1        0.1430
     26 C         139.2350  147.9752  155.4968 C.3     1  UNL1        0.0788
     27 C         139.3135  149.2052  154.6417 C.3     1  UNL1        0.0192
     28 C         138.7724  150.3571  155.4357 C.3     1  UNL1        0.0185
     29 C         138.3594  149.8391  156.7816 C.3     1  UNL1        0.0686
     30 N         138.6453  148.3670  156.8193 N.3     1  UNL1       -0.2969
     31 H         137.7805  147.8505  156.9793 H       1  UNL1        0.1233
@<TRIPOS>BOND
     1    10    11    2
     2    11    12   ar
     3    12    13   ar
     4    13    17    1
     5    17    18    1
     6    18    19    1
     7    19    20   ar
     8    20    21   ar
     9    21    22   ar
    10    22    23   ar
    11    23    24   ar
    12    13    14   ar
    13    14    15   ar
    14    15    16   ar
    15    16     1    1
    16     1     2   ar
    17     2     3   ar
    18     3     4   ar
    19     4     5   ar
    20     5     6   ar
    21     6     7   ar
    22     7     8   ar
    23     8    25    1
    24    26    25    1
    25    26    27    1
    26    27    28    1
    27    28    29    1
    28    29    30    1
    29     5     9   ar
    30    16    11   ar
    31     9     1   ar
    32    24    19   ar
    33     8     4   ar
    34    30    26    1
    35    30    31    1
@<TRIPOS>MOLECULE
*****
 31 35 0 0 0
SMALL
GASTEIGER

@<TRIPOS>ATOM
      1 C         139.0534  142.4923  158.4766 C.ar    1  UNL1        0.0670
      2 C         138.5388  141.0918  158.6298 C.ar    1  UNL1        0.0191
      3 C         137.4871  140.5727  157.6947 C.ar    1  UNL1        0.0203
      4 C         136.9500  141.4543  156.6064 C.ar    1  UNL1        0.0795
      5 C         137.4646  142.8549  156.4532 C.ar    1  UNL1        0.0396
      6 C         136.7511  143.4867  155.2949 C.ar    1  UNL1        0.1216
      7 N         135.7956  142.4766  154.7321 N.ar    1  UNL1       -0.1677
      8 N         135.9185  141.2204  155.5427 N.ar    1  UNL1       -0.2495
      9 C         138.5163  143.3739  157.3883 C.ar    1  UNL1        0.0207
     10 O         138.2776  143.5120  161.1893 O.2     1  UNL1       -0.2665
     11 C         139.7173  143.5213  160.7681 C.ar    1  UNL1        0.2679
     12 C         140.7690  144.0404  161.7032 C.ar    1  UNL1        0.0980
     13 C         142.2086  144.0496  161.2820 C.ar    1  UNL1        0.1453
     14 C         142.5965  143.5398  159.9257 C.ar    1  UNL1        0.0561
     15 C         141.5448  143.0207  158.9905 C.ar    1  UNL1        0.0860
     16 N         140.1052  143.0114  159.4117 N.ar    1  UNL1       -0.2729
     17 O         143.2603  144.5687  162.2171 O.3     1  UNL1       -0.4704
     18 C         144.4618  143.7289  162.5350 C.3     1  UNL1        0.2320
     19 C         144.3026  142.4558  163.3123 C.ar    1  UNL1        0.0212
     20 C         145.0151  141.2125  162.8691 C.ar    1  UNL1       -0.0007
     21 C         144.8559  139.9395  163.6463 C.ar    1  UNL1       -0.0002
     22 C         143.9843  139.9099  164.8668 C.ar    1  UNL1       -0.0000
     23 C         143.2718  141.1533  165.3099 C.ar    1  UNL1       -0.0002
     24 C         143.4310  142.4262  164.5327 C.ar    1  UNL1       -0.0007
     25 C         135.1456  139.9530  155.3274 C.3     1  UNL1        0.1430
     26 C         133.8906  139.6981  156.1084 C.3     1  UNL1        0.0788
     27 C         132.6934  140.5996  156.1723 C.3     1  UNL1        0.0192
     28 C         131.6753  139.9556  157.0660 C.3     1  UNL1        0.0185
     29 C         132.2433  138.6560  157.5545 C.3     1  UNL1        0.0686
     30 N         133.6124  138.4969  156.9627 N.3     1  UNL1       -0.2969
     31 H         133.6471  137.6515  156.3930 H       1  UNL1        0.1233
@<TRIPOS>BOND
     1    10    11    2
     2    11    12   ar
     3    12    13   ar
     4    13    17    1
     5    17    18    1
     6    18    19    1
     7    19    20   ar
     8    20    21   ar
     9    21    22   ar
    10    22    23   ar
    11    23    24   ar
    12    13    14   ar
    13    14    15   ar
    14    15    16   ar
    15    16     1    1
    16     1     2   ar
    17     2     3   ar
    18     3     4   ar
    19     4     5   ar
    20     5     6   ar
    21     6     7   ar
    22     7     8   ar
    23     8    25    1
    24    26    25    1
    25    26    27    1
    26    27    28    1
    27    28    29    1
    28    29    30    1
    29     5     9   ar
    30    16    11   ar
    31     9     1   ar
    32    24    19   ar
    33     8     4   ar
    34    30    26    1
    35    30    31    1
@<TRIPOS>MOLECULE
*****
 31 35 0 0 0
SMALL
GASTEIGER

@<TRIPOS>ATOM
      1 C         140.2591  138.9732  160.9329 C.ar    1  UNL1        0.0670
      2 C         139.4282  138.4495  159.7992 C.ar    1  UNL1        0.0191
      3 C         140.0099  138.3666  158.4191 C.ar    1  UNL1        0.0203
      4 C         141.4223  138.8074  158.1727 C.ar    1  UNL1        0.0795
      5 C         142.2531  139.3311  159.3064 C.ar    1  UNL1        0.0396
      6 C         143.6048  139.6894  158.7637 C.ar    1  UNL1        0.1216
      7 N         143.6094  139.3871  157.2944 N.ar    1  UNL1       -0.1677
      8 N         142.2605  138.8420  156.9291 N.ar    1  UNL1       -0.2495
      9 C         141.6715  139.4140  160.6866 C.ar    1  UNL1        0.0207
     10 O         140.9461  136.8885  162.9779 O.2     1  UNL1       -0.2665
     11 C         140.0209  138.0138  163.3356 C.ar    1  UNL1        0.2679
     12 C         139.4394  138.0967  164.7158 C.ar    1  UNL1        0.0980
     13 C         138.5142  139.2220  165.0735 C.ar    1  UNL1        0.1453
     14 C         138.1707  140.2644  164.0510 C.ar    1  UNL1        0.0561
     15 C         138.7523  140.1814  162.6708 C.ar    1  UNL1        0.0860
     16 N         139.6774  139.0562  162.3131 N.ar    1  UNL1       -0.2729
     17 O         137.9327  139.3049  166.4537 O.3     1  UNL1       -0.4704
     18 C         138.8323  139.2363  167.6519 C.3     1  UNL1        0.2320
     19 C         139.4277  140.4923  168.2157 C.ar    1  UNL1        0.0212
     20 C         139.3086  140.7864  169.6818 C.ar    1  UNL1       -0.0007
     21 C         139.9040  142.0424  170.2455 C.ar    1  UNL1       -0.0002
     22 C         140.6184  143.0044  169.3432 C.ar    1  UNL1       -0.0000
     23 C         140.7375  142.7104  167.8772 C.ar    1  UNL1       -0.0002
     24 C         140.1421  141.4543  167.3135 C.ar    1  UNL1       -0.0007
     25 C         141.8261  138.4078  155.5607 C.3     1  UNL1        0.1430
     26 C         141.8246  136.9515  155.2012 C.3     1  UNL1        0.0788
     27 C         142.5219  136.3328  154.0259 C.3     1  UNL1        0.0192
     28 C         142.2539  134.8572  154.0521 C.3     1  UNL1        0.0185
     29 C         141.3910  134.5639  155.2435 C.3     1  UNL1        0.0686
     30 N         141.1257  135.8582  155.9536 N.3     1  UNL1       -0.2969
     31 H         141.4850  135.8099  156.9071 H       1  UNL1        0.1233
@<TRIPOS>BOND
     1    10    11    2
     2    11    12   ar
     3    12    13   ar
     4    13    17    1
     5    17    18    1
     6    18    19    1
     7    19    20   ar
     8    20    21   ar
     9    21    22   ar
    10    22    23   ar
    11    23    24   ar
    12    13    14   ar
    13    14    15   ar
    14    15    16   ar
    15    16     1    1
    16     1     2   ar
    17     2     3   ar
    18     3     4   ar
    19     4     5   ar
    20     5     6   ar
    21     6     7   ar
    22     7     8   ar
    23     8    25    1
    24    26    25    1
    25    26    27    1
    26    27    28    1
    27    28    29    1
    28    29    30    1
    29     5     9   ar
    30    16    11   ar
    31     9     1   ar
    32    24    19   ar
    33     8     4   ar
    34    30    26    1
    35    30    31    1
@<TRIPOS>MOLECULE
*****
 31 35 0 0 0
SMALL
GASTEIGER

@<TRIPOS>ATOM
      1 C         140.3199  139.6265  159.1944 C.ar    1  UNL1        0.0670
      2 C         141.7011  139.1561  159.5423 C.ar    1  UNL1        0.0191
      3 C         142.3443  138.0620  158.7428 C.ar    1  UNL1        0.0203
      4 C         141.6064  137.4383  157.5954 C.ar    1  UNL1        0.0795
      5 C         140.2252  137.9087  157.2475 C.ar    1  UNL1        0.0396
      6 C         139.7465  137.1108  156.0710 C.ar    1  UNL1        0.1216
      7 N         140.8317  136.1473  155.6918 N.ar    1  UNL1       -0.1677
      8 N         141.9813  136.3497  156.6339 N.ar    1  UNL1       -0.2495
      9 C         139.5820  139.0028  158.0470 C.ar    1  UNL1        0.0207
     10 O         138.4585  138.9434  161.4457 O.2     1  UNL1       -0.2665
     11 C         138.7459  140.3791  161.1195 C.ar    1  UNL1        0.2679
     12 C         138.1027  141.4731  161.9190 C.ar    1  UNL1        0.0980
     13 C         138.3901  142.9088  161.5928 C.ar    1  UNL1        0.1453
     14 C         139.3208  143.2503  160.4672 C.ar    1  UNL1        0.0561
     15 C         139.9641  142.1562  159.6677 C.ar    1  UNL1        0.0860
     16 N         139.6767  140.7206  159.9939 N.ar    1  UNL1       -0.2729
     17 O         137.7468  144.0028  162.3923 O.3     1  UNL1       -0.4704
     18 C         138.3578  144.4421  163.6898 C.3     1  UNL1        0.2320
     19 C         139.8364  144.3095  163.9055 C.ar    1  UNL1        0.0212
     20 C         140.7797  145.2719  163.2470 C.ar    1  UNL1       -0.0007
     21 C         142.2581  145.1392  163.4627 C.ar    1  UNL1       -0.0002
     22 C         142.7932  144.0441  164.3370 C.ar    1  UNL1       -0.0000
     23 C         141.8499  143.0816  164.9955 C.ar    1  UNL1       -0.0002
     24 C         140.3714  143.2143  164.7798 C.ar    1  UNL1       -0.0007
     25 C         143.2780  135.5958  156.6174 C.3     1  UNL1        0.1430
     26 C         143.2774  134.1001  156.7310 C.3     1  UNL1        0.0788
     27 C         144.3431  133.2645  157.3761 C.3     1  UNL1        0.0192
     28 C         143.9355  131.8254  157.2632 C.3     1  UNL1        0.0185
     29 C         142.6179  131.7715  156.5483 C.3     1  UNL1        0.0686
     30 N         142.2112  133.1774  156.2194 N.3     1  UNL1       -0.2969
     31 H         141.3213  133.3942  156.6681 H       1  UNL1        0.1233
@<TRIPOS>BOND
     1    10    11    2
     2    11    12   ar
     3    12    13   ar
     4    13    17    1
     5    17    18    1
     6    18    19    1
     7    19    20   ar
     8    20    21   ar
     9    21    22   ar
    10    22    23   ar
    11    23    24   ar
    12    13    14   ar
    13    14    15   ar
    14    15    16   ar
    15    16     1    1
    16     1     2   ar
    17     2     3   ar
    18     3     4   ar
    19     4     5   ar
    20     5     6   ar
    21     6     7   ar
    22     7     8   ar
    23     8    25    1
    24    26    25    1
    25    26    27    1
    26    27    28    1
    27    28    29    1
    28    29    30    1
    29     5     9   ar
    30    16    11   ar
    31     9     1   ar
    32    24    19   ar
    33     8     4   ar
    34    30    26    1
    35    30    31    1
@<TRIPOS>MOLECULE
*****
 31 35 0 0 0
SMALL
GASTEIGER

@<TRIPOS>ATOM
      1 C         140.0015  139.0256  159.0524 C.ar    1  UNL1        0.0670
      2 C         139.5133  138.3925  160.3216 C.ar    1  UNL1        0.0191
      3 C         138.8161  139.2261  161.3555 C.ar    1  UNL1        0.0203
      4 C         138.6073  140.6928  161.1202 C.ar    1  UNL1        0.0795
      5 C         139.0955  141.3258  159.8511 C.ar    1  UNL1        0.0396
      6 C         138.7489  142.7845  159.8974 C.ar    1  UNL1        0.1216
      7 N         138.0464  143.0529  161.1953 N.ar    1  UNL1       -0.1677
      8 N         137.9588  141.7602  161.9511 N.ar    1  UNL1       -0.2495
      9 C         139.7927  140.4922  158.8171 C.ar    1  UNL1        0.0207
     10 O         142.9777  138.6676  159.1717 O.2     1  UNL1       -0.2665
     11 C         142.1868  138.0130  158.0780 C.ar    1  UNL1        0.2679
     12 C         142.8840  137.1794  157.0441 C.ar    1  UNL1        0.0980
     13 C         142.0931  136.5247  155.9505 C.ar    1  UNL1        0.1453
     14 C         140.6050  136.7037  155.8908 C.ar    1  UNL1        0.0561
     15 C         139.9078  137.5373  156.9248 C.ar    1  UNL1        0.0860
     16 N         140.6987  138.1919  158.0184 N.ar    1  UNL1       -0.2729
     17 O         142.7903  135.6912  154.9165 O.3     1  UNL1       -0.4704
     18 C         142.5535  134.2110  154.8622 C.3     1  UNL1        0.2320
     19 C         143.4227  133.2827  155.6577 C.ar    1  UNL1        0.0212
     20 C         143.9096  133.6909  157.0164 C.ar    1  UNL1       -0.0007
     21 C         144.7787  132.7626  157.8118 C.ar    1  UNL1       -0.0002
     22 C         145.1609  131.4259  157.2485 C.ar    1  UNL1       -0.0000
     23 C         144.6740  131.0177  155.8898 C.ar    1  UNL1       -0.0002
     24 C         143.8049  131.9460  155.0944 C.ar    1  UNL1       -0.0007
     25 C         137.3328  141.5685  163.3006 C.3     1  UNL1        0.1430
     26 C         138.1915  141.2407  164.4860 C.3     1  UNL1        0.0788
     27 C         138.2054  139.9392  165.2317 C.3     1  UNL1        0.0192
     28 C         139.2096  140.0508  166.3403 C.3     1  UNL1        0.0185
     29 C         139.8164  141.4213  166.2798 C.3     1  UNL1        0.0686
     30 N         139.1872  142.1566  165.1338 N.3     1  UNL1       -0.2969
     31 H         139.9036  142.4226  164.4582 H       1  UNL1        0.1233
@<TRIPOS>BOND
     1    10    11    2
     2    11    12   ar
     3    12    13   ar
     4    13    17    1
     5    17    18    1
     6    18    19    1
     7    19    20   ar
     8    20    21   ar
     9    21    22   ar
    10    22    23   ar
    11    23    24   ar
    12    13    14   ar
    13    14    15   ar
    14    15    16   ar
    15    16     1    1
    16     1     2   ar
    17     2     3   ar
    18     3     4   ar
    19     4     5   ar
    20     5     6   ar
    21     6     7   ar
    22     7     8   ar
    23     8    25    1
    24    26    25    1
    25    26    27    1
    26    27    28    1
    27    28    29    1
    28    29    30    1
    29     5     9   ar
    30    16    11   ar
    31     9     1   ar
    32    24    19   ar
    33     8     4   ar
    34    30    26    1
    35    30    31    1
@<TRIPOS>MOLECULE
*****
 31 35 0 0 0
SMALL
GASTEIGER

@<TRIPOS>ATOM
      1 C         141.8557  143.7603  161.2641 C.ar    1  UNL1        0.0670
      2 C         142.6414  144.5376  162.2781 C.ar    1  UNL1        0.0191
      3 C         142.8640  143.9712  163.6491 C.ar    1  UNL1        0.0203
      4 C         142.3010  142.6275  164.0060 C.ar    1  UNL1        0.0795
      5 C         141.5153  141.8502  162.9919 C.ar    1  UNL1        0.0396
      6 C         141.0856  140.5612  163.6274 C.ar    1  UNL1        0.1216
      7 N         141.6057  140.5418  165.0342 N.ar    1  UNL1       -0.1677
      8 N         142.3569  141.8189  165.2682 N.ar    1  UNL1       -0.2495
      9 C         141.2926  142.4165  161.6210 C.ar    1  UNL1        0.0207
     10 O         139.5942  145.6711  160.7796 O.2     1  UNL1       -0.2665
     11 C         140.5023  145.2820  159.6508 C.ar    1  UNL1        0.2679
     12 C         140.2796  145.8484  158.2798 C.ar    1  UNL1        0.0980
     13 C         141.1876  145.4594  157.1510 C.ar    1  UNL1        0.1453
     14 C         142.3183  144.5040  157.3932 C.ar    1  UNL1        0.0561
     15 C         142.5410  143.9376  158.7643 C.ar    1  UNL1        0.0860
     16 N         141.6330  144.3266  159.8930 N.ar    1  UNL1       -0.2729
     17 O         140.9649  146.0257  155.7800 O.3     1  UNL1       -0.4704
     18 C         139.6064  146.5254  155.3866 C.3     1  UNL1        0.2320
     19 C         139.3615  147.9984  155.2436 C.ar    1  UNL1        0.0212
     20 C         139.8620  148.7278  154.0323 C.ar    1  UNL1       -0.0007
     21 C         139.6171  150.2007  153.8893 C.ar    1  UNL1       -0.0002
     22 C         138.8716  150.9443  154.9578 C.ar    1  UNL1       -0.0000
     23 C         138.3711  150.2149  156.1691 C.ar    1  UNL1       -0.0002
     24 C         138.6161  148.7419  156.3121 C.ar    1  UNL1       -0.0007
     25 C         143.0434  142.2175  166.5409 C.3     1  UNL1        0.1430
     26 C         142.8822  141.3792  167.7743 C.3     1  UNL1        0.0788
     27 C         143.1157  141.8324  169.1851 C.3     1  UNL1        0.0192
     28 C         142.8369  140.6739  170.0962 C.3     1  UNL1        0.0185
     29 C         142.4312  139.5046  169.2486 C.3     1  UNL1        0.0686
     30 N         142.4592  139.9406  167.8136 N.3     1  UNL1       -0.2969
     31 H         141.5305  139.8416  167.4036 H       1  UNL1        0.1233
@<TRIPOS>BOND
     1    10    11    2
     2    11    12   ar
     3    12    13   ar
     4    13    17    1
     5    17    18    1
     6    18    19    1
     7    19    20   ar
     8    20    21   ar
     9    21    22   ar
    10    22    23   ar
    11    23    24   ar
    12    13    14   ar
    13    14    15   ar
    14    15    16   ar
    15    16     1    1
    16     1     2   ar
    17     2     3   ar
    18     3     4   ar
    19     4     5   ar
    20     5     6   ar
    21     6     7   ar
    22     7     8   ar
    23     8    25    1
    24    26    25    1
    25    26    27    1
    26    27    28    1
    27    28    29    1
    28    29    30    1
    29     5     9   ar
    30    16    11   ar
    31     9     1   ar
    32    24    19   ar
    33     8     4   ar
    34    30    26    1
    35    30    31    1
@<TRIPOS>MOLECULE
*****
 31 35 0 0 0
SMALL
GASTEIGER

@<TRIPOS>ATOM
      1 C         141.7218  138.8698  159.8994 C.ar    1  UNL1        0.0670
      2 C         142.0758  140.3120  159.6886 C.ar    1  UNL1        0.0191
      3 C         142.7815  140.7355  158.4346 C.ar    1  UNL1        0.0203
      4 C         143.1333  139.7166  157.3914 C.ar    1  UNL1        0.0795
      5 C         142.7793  138.2744  157.6023 C.ar    1  UNL1        0.0396
      6 C         143.2506  137.5018  156.4060 C.ar    1  UNL1        0.1216
      7 N         143.8960  138.4666  155.4559 N.ar    1  UNL1       -0.1677
      8 N         143.8235  139.8355  156.0649 N.ar    1  UNL1       -0.2495
      9 C         142.0735  137.8509  158.8562 C.ar    1  UNL1        0.0207
     10 O         143.3085  138.0510  162.3102 O.2     1  UNL1       -0.2665
     11 C         141.8093  138.0369  162.3588 C.ar    1  UNL1        0.2679
     12 C         141.1036  137.6134  163.6128 C.ar    1  UNL1        0.0980
     13 C         139.6044  137.5993  163.6615 C.ar    1  UNL1        0.1453
     14 C         138.8110  138.0087  162.4561 C.ar    1  UNL1        0.0561
     15 C         139.5168  138.4322  161.2021 C.ar    1  UNL1        0.0860
     16 N         141.0159  138.4463  161.1535 N.ar    1  UNL1       -0.2729
     17 O         138.8986  137.1758  164.9155 O.3     1  UNL1       -0.4704
     18 C         138.3984  138.2097  165.8802 C.3     1  UNL1        0.2320
     19 C         138.8644  139.6309  165.7649 C.ar    1  UNL1        0.0212
     20 C         138.1002  140.6043  164.9173 C.ar    1  UNL1       -0.0007
     21 C         138.5662  142.0254  164.8020 C.ar    1  UNL1       -0.0002
     22 C         139.7964  142.4731  165.5342 C.ar    1  UNL1       -0.0000
     23 C         140.5606  141.4996  166.3818 C.ar    1  UNL1       -0.0002
     24 C         140.0946  140.0786  166.4971 C.ar    1  UNL1       -0.0007
     25 C         144.3488  141.1010  155.4546 C.3     1  UNL1        0.1430
     26 C         145.6642  141.6621  155.9071 C.3     1  UNL1        0.0788
     27 C         146.9925  141.4373  155.2474 C.3     1  UNL1        0.0192
     28 C         148.0315  142.1828  156.0314 C.3     1  UNL1        0.0185
     29 C         147.3454  142.8684  157.1757 C.3     1  UNL1        0.0686
     30 N         145.8824  142.5465  157.0989 N.3     1  UNL1       -0.2969
     31 H         145.3438  143.4065  156.9949 H       1  UNL1        0.1233
@<TRIPOS>BOND
     1    10    11    2
     2    11    12   ar
     3    12    13   ar
     4    13    17    1
     5    17    18    1
     6    18    19    1
     7    19    20   ar
     8    20    21   ar
     9    21    22   ar
    10    22    23   ar
    11    23    24   ar
    12    13    14   ar
    13    14    15   ar
    14    15    16   ar
    15    16     1    1
    16     1     2   ar
    17     2     3   ar
    18     3     4   ar
    19     4     5   ar
    20     5     6   ar
    21     6     7   ar
    22     7     8   ar
    23     8    25    1
    24    26    25    1
    25    26    27    1
    26    27    28    1
    27    28    29    1
    28    29    30    1
    29     5     9   ar
    30    16    11   ar
    31     9     1   ar
    32    24    19   ar
    33     8     4   ar
    34    30    26    1
    35    30    31    1
