@<TRIPOS>MOLECULE
*****
 29 33 0 0 0
SMALL
GASTEIGER

@<TRIPOS>ATOM
      1 C         141.8601  139.0832  162.0572 C.ar    1  UNL1        0.2014
      2 N         142.9055  138.5634  161.1155 N.ar    1  UNL1       -0.2136
      3 C         142.2445  138.2820  159.7986 C.ar    1  UNL1        0.0999
      4 C         142.7788  137.7556  158.4997 C.ar    1  UNL1        0.0207
      5 C         141.8590  137.5750  157.3286 C.ar    1  UNL1        0.0016
      6 C         140.4051  137.9210  157.4565 C.ar    1  UNL1        0.0016
      7 C         139.8709  138.4474  158.7555 C.ar    1  UNL1        0.0188
      8 C         140.7906  138.6280  159.9266 C.ar    1  UNL1        0.0801
      9 N         140.5530  139.1231  161.3224 N.ar    1  UNL1       -0.2954
     10 C         142.5278  140.3078  166.3356 C.3     1  UNL1        0.1086
     11 C         142.3459  141.3535  165.2758 C.3     1  UNL1        0.0459
     12 C         142.1233  140.9453  163.8497 C.3     1  UNL1        0.0955
     13 N         142.0827  139.4914  163.4833 N.pl3   1  UNL1       -0.2794
     14 C         142.2646  138.4456  164.5431 C.3     1  UNL1        0.0955
     15 C         142.4872  138.8538  165.9693 C.3     1  UNL1        0.0459
     16 C         143.2389  143.2441  170.6661 C.3     1  UNL1        0.0343
     17 C         143.0773  142.0657  169.7523 C.ar    1  UNL1        0.0177
     18 C         143.1086  140.6226  170.1604 C.ar    1  UNL1        0.1174
     19 N         142.9066  139.7885  168.9302 N.ar    1  UNL1       -0.1681
     20 N         142.7504  140.7160  167.7617 N.ar    1  UNL1       -0.2516
     21 C         142.8559  142.1233  168.2698 C.ar    1  UNL1        0.0923
     22 C         139.2390  139.5782  161.8847 C.3     1  UNL1        0.1354
     23 C         138.8873  139.2733  163.3106 C.ar    1  UNL1        0.0006
     24 C         138.5257  140.3867  164.2485 C.ar    1  UNL1       -0.0001
     25 C         138.1740  140.0818  165.6745 C.ar    1  UNL1        0.0294
     26 C         138.1840  138.6634  166.1626 C.ar    1  UNL1        0.1401
     27 F         137.8324  138.3585  167.5885 F       1  UNL1       -0.2042
     28 C         138.5456  137.5501  165.2247 C.ar    1  UNL1        0.0294
     29 C         138.8973  137.8550  163.7988 C.ar    1  UNL1       -0.0001
@<TRIPOS>BOND
     1    16    17    1
     2    17    18   ar
     3    18    19   ar
     4    19    20   ar
     5    20    10    1
     6    10    11    1
     7    11    12    1
     8    12    13    1
     9    13     1    1
    10     1     2   ar
    11     2     3   ar
    12     3     4   ar
    13     4     5   ar
    14     5     6   ar
    15     6     7   ar
    16     7     8   ar
    17     8     9   ar
    18     9    22    1
    19    22    23    1
    20    23    24   ar
    21    24    25   ar
    22    25    26   ar
    23    26    27    1
    24    26    28   ar
    25    28    29   ar
    26    13    14    1
    27    14    15    1
    28    20    21   ar
    29    21    17   ar
    30    15    10    1
    31     9     1   ar
    32    29    23   ar
    33     8     3   ar
@<TRIPOS>MOLECULE
*****
 29 33 0 0 0
SMALL
GASTEIGER

@<TRIPOS>ATOM
      1 C         143.0808  141.2381  165.8378 C.ar    1  UNL1        0.2014
      2 N         143.1634  142.4009  166.7818 N.ar    1  UNL1       -0.2136
      3 C         142.8357  141.9044  168.1588 C.ar    1  UNL1        0.0999
      4 C         142.7601  142.6008  169.4852 C.ar    1  UNL1        0.0207
      5 C         142.3993  141.8274  170.7187 C.ar    1  UNL1        0.0016
      6 C         142.1141  140.3577  170.6258 C.ar    1  UNL1        0.0016
      7 C         142.1897  139.6613  169.2994 C.ar    1  UNL1        0.0188
      8 C         142.5505  140.4347  168.0659 C.ar    1  UNL1        0.0801
      9 N         142.7020  140.0229  166.6315 N.ar    1  UNL1       -0.2954
     10 C         143.8367  141.3716  161.4038 C.3     1  UNL1        0.1086
     11 C         144.9485  141.0103  162.3436 C.3     1  UNL1        0.0459
     12 C         144.6965  140.9658  163.8216 C.3     1  UNL1        0.0955
     13 N         143.3328  141.2826  164.3598 N.pl3   1  UNL1       -0.2794
     14 C         142.2209  141.6439  163.4200 C.3     1  UNL1        0.0955
     15 C         142.4729  141.6884  161.9420 C.3     1  UNL1        0.0459
     16 C         144.1558  139.9814  156.3198 C.3     1  UNL1        0.0343
     17 C         144.2353  140.7771  157.5889 C.ar    1  UNL1        0.0177
     18 C         144.7173  142.1921  157.7137 C.ar    1  UNL1        0.1174
     19 N         144.6267  142.5870  159.1579 N.ar    1  UNL1       -0.1681
     20 N         144.0886  141.4161  159.9258 N.ar    1  UNL1       -0.2516
     21 C         143.8468  140.2976  158.9560 C.ar    1  UNL1        0.0923
     22 C         142.5086  138.6389  166.0864 C.3     1  UNL1        0.1354
     23 C         141.3910  138.3606  165.1255 C.ar    1  UNL1        0.0006
     24 C         141.6953  137.8448  163.7502 C.ar    1  UNL1       -0.0001
     25 C         140.5778  137.5664  162.7892 C.ar    1  UNL1        0.0294
     26 C         139.1558  137.8039  163.2035 C.ar    1  UNL1        0.1401
     27 F         138.0382  137.5255  162.2425 F       1  UNL1       -0.2042
     28 C         138.8514  138.3197  164.5788 C.ar    1  UNL1        0.0294
     29 C         139.9690  138.5980  165.5398 C.ar    1  UNL1       -0.0001
@<TRIPOS>BOND
     1    16    17    1
     2    17    18   ar
     3    18    19   ar
     4    19    20   ar
     5    20    10    1
     6    10    11    1
     7    11    12    1
     8    12    13    1
     9    13     1    1
    10     1     2   ar
    11     2     3   ar
    12     3     4   ar
    13     4     5   ar
    14     5     6   ar
    15     6     7   ar
    16     7     8   ar
    17     8     9   ar
    18     9    22    1
    19    22    23    1
    20    23    24   ar
    21    24    25   ar
    22    25    26   ar
    23    26    27    1
    24    26    28   ar
    25    28    29   ar
    26    13    14    1
    27    14    15    1
    28    20    21   ar
    29    21    17   ar
    30    15    10    1
    31     9     1   ar
    32    29    23   ar
    33     8     3   ar
@<TRIPOS>MOLECULE
*****
 29 33 0 0 0
SMALL
GASTEIGER

@<TRIPOS>ATOM
      1 C         141.3543  139.5501  165.7478 C.ar    1  UNL1        0.2014
      2 N         142.4292  139.3372  166.7721 N.ar    1  UNL1       -0.2136
      3 C         141.8754  139.7216  168.1120 C.ar    1  UNL1        0.0999
      4 C         142.4785  139.7197  169.4854 C.ar    1  UNL1        0.0207
      5 C         141.6643  140.1682  170.6627 C.ar    1  UNL1        0.0016
      6 C         140.2471  140.6187  170.4665 C.ar    1  UNL1        0.0016
      7 C         139.6440  140.6207  169.0931 C.ar    1  UNL1        0.0188
      8 C         140.4581  140.1721  167.9159 C.ar    1  UNL1        0.0801
      9 N         140.1361  140.0661  166.4547 N.ar    1  UNL1       -0.2954
     10 C         141.7198  138.7765  161.3299 C.3     1  UNL1        0.1086
     11 C         141.9034  140.1654  161.8658 C.3     1  UNL1        0.0459
     12 C         141.7815  140.4232  163.3384 C.3     1  UNL1        0.0955
     13 N         141.4761  139.2922  164.2751 N.pl3   1  UNL1       -0.2794
     14 C         141.2925  137.9033  163.7392 C.3     1  UNL1        0.0955
     15 C         141.4143  137.6455  162.2666 C.3     1  UNL1        0.0459
     16 C         140.5197  138.1314  156.2284 C.3     1  UNL1        0.0343
     17 C         141.2900  138.2221  157.5123 C.ar    1  UNL1        0.0177
     18 C         142.7682  138.0216  157.6697 C.ar    1  UNL1        0.1174
     19 N         143.1091  138.2049  159.1189 N.ar    1  UNL1       -0.1681
     20 N         141.8416  138.5187  159.8572 N.ar    1  UNL1       -0.2516
     21 C         140.7174  138.5293  158.8643 C.ar    1  UNL1        0.0923
     22 C         138.8258  140.4149  165.8131 C.3     1  UNL1        0.1354
     23 C         138.6981  141.6709  165.0033 C.ar    1  UNL1        0.0006
     24 C         139.4951  142.8865  165.3737 C.ar    1  UNL1       -0.0001
     25 C         139.3674  144.1426  164.5639 C.ar    1  UNL1        0.0294
     26 C         138.4426  144.1832  163.3835 C.ar    1  UNL1        0.1401
     27 F         138.3149  145.4393  162.5737 F       1  UNL1       -0.2042
     28 C         137.6456  142.9676  163.0131 C.ar    1  UNL1        0.0294
     29 C         137.7733  141.7115  163.8230 C.ar    1  UNL1       -0.0001
@<TRIPOS>BOND
     1    16    17    1
     2    17    18   ar
     3    18    19   ar
     4    19    20   ar
     5    20    10    1
     6    10    11    1
     7    11    12    1
     8    12    13    1
     9    13     1    1
    10     1     2   ar
    11     2     3   ar
    12     3     4   ar
    13     4     5   ar
    14     5     6   ar
    15     6     7   ar
    16     7     8   ar
    17     8     9   ar
    18     9    22    1
    19    22    23    1
    20    23    24   ar
    21    24    25   ar
    22    25    26   ar
    23    26    27    1
    24    26    28   ar
    25    28    29   ar
    26    13    14    1
    27    14    15    1
    28    20    21   ar
    29    21    17   ar
    30    15    10    1
    31     9     1   ar
    32    29    23   ar
    33     8     3   ar
@<TRIPOS>MOLECULE
*****
 29 33 0 0 0
SMALL
GASTEIGER

@<TRIPOS>ATOM
      1 C         140.5845  140.3632  165.5875 C.ar    1  UNL1        0.2014
      2 N         139.8128  139.6284  166.6432 N.ar    1  UNL1       -0.2136
      3 C         139.8040  140.4726  167.8830 C.ar    1  UNL1        0.0999
      4 C         139.1972  140.2595  169.2381 C.ar    1  UNL1        0.0207
      5 C         139.3567  141.3029  170.3038 C.ar    1  UNL1        0.0016
      6 C         140.1230  142.5596  170.0144 C.ar    1  UNL1        0.0016
      7 C         140.7298  142.7727  168.6592 C.ar    1  UNL1        0.0188
      8 C         140.5703  141.7292  167.5936 C.ar    1  UNL1        0.0801
      9 N         141.0526  141.6616  166.1749 N.ar    1  UNL1       -0.2954
     10 C         141.3592  138.9249  161.3945 C.3     1  UNL1        0.1086
     11 C         140.3093  139.9657  161.6484 C.3     1  UNL1        0.0459
     12 C         140.0511  140.4451  163.0461 C.3     1  UNL1        0.0955
     13 N         140.8428  139.8838  164.1898 N.pl3   1  UNL1       -0.2794
     14 C         141.8927  138.8430  163.9359 C.3     1  UNL1        0.0955
     15 C         142.1509  138.3636  162.5382 C.3     1  UNL1        0.0459
     16 C         140.7756  137.9074  156.2462 C.3     1  UNL1        0.0343
     17 C         141.3492  137.9778  157.6304 C.ar    1  UNL1        0.0177
     18 C         142.6805  137.4378  158.0616 C.ar    1  UNL1        0.1174
     19 N         142.8463  137.7269  159.5241 N.ar    1  UNL1       -0.1681
     20 N         141.6175  138.4455  159.9968 N.ar    1  UNL1       -0.2516
     21 C         140.6922  138.6006  158.8264 C.ar    1  UNL1        0.0923
     22 C         141.8612  142.7085  165.4677 C.3     1  UNL1        0.1354
     23 C         141.1935  143.6552  164.5149 C.ar    1  UNL1        0.0006
     24 C         139.7354  143.9715  164.6702 C.ar    1  UNL1       -0.0001
     25 C         139.0676  144.9182  163.7174 C.ar    1  UNL1        0.0294
     26 C         139.8580  145.5487  162.6093 C.ar    1  UNL1        0.1401
     27 F         139.1902  146.4954  161.6565 F       1  UNL1       -0.2042
     28 C         141.3160  145.2324  162.4540 C.ar    1  UNL1        0.0294
     29 C         141.9838  144.2857  163.4068 C.ar    1  UNL1       -0.0001
@<TRIPOS>BOND
     1    16    17    1
     2    17    18   ar
     3    18    19   ar
     4    19    20   ar
     5    20    10    1
     6    10    11    1
     7    11    12    1
     8    12    13    1
     9    13     1    1
    10     1     2   ar
    11     2     3   ar
    12     3     4   ar
    13     4     5   ar
    14     5     6   ar
    15     6     7   ar
    16     7     8   ar
    17     8     9   ar
    18     9    22    1
    19    22    23    1
    20    23    24   ar
    21    24    25   ar
    22    25    26   ar
    23    26    27    1
    24    26    28   ar
    25    28    29   ar
    26    13    14    1
    27    14    15    1
    28    20    21   ar
    29    21    17   ar
    30    15    10    1
    31     9     1   ar
    32    29    23   ar
    33     8     3   ar
@<TRIPOS>MOLECULE
*****
 29 33 0 0 0
SMALL
GASTEIGER

@<TRIPOS>ATOM
      1 C         141.5840  141.9624  165.8494 C.ar    1  UNL1        0.2014
      2 N         142.7303  142.0018  166.8160 N.ar    1  UNL1       -0.2136
      3 C         142.2977  141.3131  168.0764 C.ar    1  UNL1        0.0999
      4 C         143.0085  141.0494  169.3707 C.ar    1  UNL1        0.0207
      5 C         142.3055  140.3206  170.4773 C.ar    1  UNL1        0.0016
      6 C         140.8919  139.8554  170.2896 C.ar    1  UNL1        0.0016
      7 C         140.1812  140.1191  168.9953 C.ar    1  UNL1        0.0188
      8 C         140.8841  140.8479  167.8887 C.ar    1  UNL1        0.0801
      9 N         140.4430  141.2492  166.5123 N.ar    1  UNL1       -0.2954
     10 C         141.5705  143.6815  161.6907 C.3     1  UNL1        0.1086
     11 C         141.0555  144.4956  162.8405 C.3     1  UNL1        0.0459
     12 C         141.0600  143.9225  164.2267 C.3     1  UNL1        0.0955
     13 N         141.5795  142.5354  164.4632 N.pl3   1  UNL1       -0.2794
     14 C         142.0944  141.7213  163.3134 C.3     1  UNL1        0.0955
     15 C         142.0899  142.2944  161.9272 C.3     1  UNL1        0.0459
     16 C         140.1140  146.3052  157.3461 C.3     1  UNL1        0.0343
     17 C         140.8965  145.4605  158.3075 C.ar    1  UNL1        0.0177
     18 C         142.2215  144.8123  158.0352 C.ar    1  UNL1        0.1174
     19 N         142.6352  144.0670  159.2694 N.ar    1  UNL1       -0.1681
     20 N         141.5660  144.2546  160.3045 N.ar    1  UNL1       -0.2516
     21 C         140.4914  145.1158  159.7100 C.ar    1  UNL1        0.0923
     22 C         139.0971  140.9839  165.9055 C.3     1  UNL1        0.1354
     23 C         138.9826  140.1250  164.6811 C.ar    1  UNL1        0.0006
     24 C         139.4142  138.6892  164.7290 C.ar    1  UNL1       -0.0001
     25 C         139.2997  137.8303  163.5047 C.ar    1  UNL1        0.0294
     26 C         138.7535  138.4071  162.2323 C.ar    1  UNL1        0.1401
     27 F         138.6390  137.5482  161.0079 F       1  UNL1       -0.2042
     28 C         138.3219  139.8429  162.1843 C.ar    1  UNL1        0.0294
     29 C         138.4364  140.7018  163.4087 C.ar    1  UNL1       -0.0001
@<TRIPOS>BOND
     1    16    17    1
     2    17    18   ar
     3    18    19   ar
     4    19    20   ar
     5    20    10    1
     6    10    11    1
     7    11    12    1
     8    12    13    1
     9    13     1    1
    10     1     2   ar
    11     2     3   ar
    12     3     4   ar
    13     4     5   ar
    14     5     6   ar
    15     6     7   ar
    16     7     8   ar
    17     8     9   ar
    18     9    22    1
    19    22    23    1
    20    23    24   ar
    21    24    25   ar
    22    25    26   ar
    23    26    27    1
    24    26    28   ar
    25    28    29   ar
    26    13    14    1
    27    14    15    1
    28    20    21   ar
    29    21    17   ar
    30    15    10    1
    31     9     1   ar
    32    29    23   ar
    33     8     3   ar
@<TRIPOS>MOLECULE
*****
 29 33 0 0 0
SMALL
GASTEIGER

@<TRIPOS>ATOM
      1 C         139.9138  139.6794  161.7381 C.ar    1  UNL1        0.2014
      2 N         140.8411  138.7520  161.0100 N.ar    1  UNL1       -0.2136
      3 C         140.5591  138.8732  159.5417 C.ar    1  UNL1        0.0999
      4 C         141.1630  138.2003  158.3448 C.ar    1  UNL1        0.0207
      5 C         140.6655  138.5297  156.9687 C.ar    1  UNL1        0.0016
      6 C         139.5639  139.5320  156.7894 C.ar    1  UNL1        0.0016
      7 C         138.9600  140.2048  157.9862 C.ar    1  UNL1        0.0188
      8 C         139.4576  139.8754  159.3624 C.ar    1  UNL1        0.0801
      9 N         139.0588  140.3737  160.7199 N.ar    1  UNL1       -0.2954
     10 C         139.7296  140.2742  166.1949 C.3     1  UNL1        0.1086
     11 C         138.7937  139.3105  165.5275 C.3     1  UNL1        0.0459
     12 C         138.8551  139.1122  164.0419 C.3     1  UNL1        0.0955
     13 N         139.8524  139.8777  163.2237 N.pl3   1  UNL1       -0.2794
     14 C         140.7883  140.8413  163.8911 C.3     1  UNL1        0.0955
     15 C         140.7269  141.0396  165.3766 C.3     1  UNL1        0.0459
     16 C         140.5727  142.1820  171.0457 C.3     1  UNL1        0.0343
     17 C         140.0557  141.3494  169.9101 C.ar    1  UNL1        0.0177
     18 C         139.0917  140.2058  170.0229 C.ar    1  UNL1        0.1174
     19 N         138.8522  139.6638  168.6449 N.ar    1  UNL1       -0.1681
     20 N         139.6682  140.4725  167.6804 N.ar    1  UNL1       -0.2516
     21 C         140.4120  141.5142  168.4624 C.ar    1  UNL1        0.0923
     22 C         137.9922  141.3881  161.0084 C.3     1  UNL1        0.1354
     23 C         138.1880  142.3906  162.1068 C.ar    1  UNL1        0.0006
     24 C         139.1687  143.5122  161.9326 C.ar    1  UNL1       -0.0001
     25 C         139.3646  144.5147  163.0310 C.ar    1  UNL1        0.0294
     26 C         138.5796  144.3957  164.3037 C.ar    1  UNL1        0.1401
     27 F         138.7754  145.3982  165.4021 F       1  UNL1       -0.2042
     28 C         137.5989  143.2742  164.4779 C.ar    1  UNL1        0.0294
     29 C         137.4031  142.2717  163.3795 C.ar    1  UNL1       -0.0001
@<TRIPOS>BOND
     1    16    17    1
     2    17    18   ar
     3    18    19   ar
     4    19    20   ar
     5    20    10    1
     6    10    11    1
     7    11    12    1
     8    12    13    1
     9    13     1    1
    10     1     2   ar
    11     2     3   ar
    12     3     4   ar
    13     4     5   ar
    14     5     6   ar
    15     6     7   ar
    16     7     8   ar
    17     8     9   ar
    18     9    22    1
    19    22    23    1
    20    23    24   ar
    21    24    25   ar
    22    25    26   ar
    23    26    27    1
    24    26    28   ar
    25    28    29   ar
    26    13    14    1
    27    14    15    1
    28    20    21   ar
    29    21    17   ar
    30    15    10    1
    31     9     1   ar
    32    29    23   ar
    33     8     3   ar
@<TRIPOS>MOLECULE
*****
 29 33 0 0 0
SMALL
GASTEIGER

@<TRIPOS>ATOM
      1 C         139.9185  141.8445  166.2197 C.ar    1  UNL1        0.2014
      2 N         140.3034  142.9851  167.1146 N.ar    1  UNL1       -0.2136
      3 C         140.4771  142.4463  168.5036 C.ar    1  UNL1        0.0999
      4 C         140.8522  143.1071  169.7969 C.ar    1  UNL1        0.0207
      5 C         140.9497  142.2943  171.0538 C.ar    1  UNL1        0.0016
      6 C         140.6722  140.8206  171.0174 C.ar    1  UNL1        0.0016
      7 C         140.2972  140.1598  169.7241 C.ar    1  UNL1        0.0188
      8 C         140.1996  140.9726  168.4672 C.ar    1  UNL1        0.0801
      9 N         139.8544  140.6007  167.0557 N.ar    1  UNL1       -0.2954
     10 C         139.0999  142.1078  161.8026 C.3     1  UNL1        0.1086
     11 C         137.9600  142.1005  162.7775 C.3     1  UNL1        0.0459
     12 C         138.2329  142.0128  164.2498 C.3     1  UNL1        0.0955
     13 N         139.6456  141.9323  164.7473 N.pl3   1  UNL1       -0.2794
     14 C         140.7856  141.9395  163.7724 C.3     1  UNL1        0.0955
     15 C         140.5127  142.0273  162.3001 C.3     1  UNL1        0.0459
     16 C         137.6199  140.8715  156.8871 C.3     1  UNL1        0.0343
     17 C         138.1468  141.6273  158.0708 C.ar    1  UNL1        0.0177
     18 C         138.6676  143.0339  158.0581 C.ar    1  UNL1        0.1174
     19 N         139.0881  143.3851  159.4545 N.ar    1  UNL1       -0.1681
     20 N         138.8271  142.1956  160.3302 N.ar    1  UNL1       -0.2516
     21 C         138.2453  141.1092  159.4750 C.ar    1  UNL1        0.0923
     22 C         139.5061  139.2263  166.5661 C.3     1  UNL1        0.1354
     23 C         140.0858  138.7194  165.2789 C.ar    1  UNL1        0.0006
     24 C         139.1807  138.3709  164.1346 C.ar    1  UNL1       -0.0001
     25 C         139.7603  137.8639  162.8473 C.ar    1  UNL1        0.0294
     26 C         141.2451  137.7055  162.7043 C.ar    1  UNL1        0.1401
     27 F         141.8247  137.1985  161.4171 F       1  UNL1       -0.2042
     28 C         142.1501  138.0540  163.8486 C.ar    1  UNL1        0.0294
     29 C         141.5705  138.5609  165.1358 C.ar    1  UNL1       -0.0001
@<TRIPOS>BOND
     1    16    17    1
     2    17    18   ar
     3    18    19   ar
     4    19    20   ar
     5    20    10    1
     6    10    11    1
     7    11    12    1
     8    12    13    1
     9    13     1    1
    10     1     2   ar
    11     2     3   ar
    12     3     4   ar
    13     4     5   ar
    14     5     6   ar
    15     6     7   ar
    16     7     8   ar
    17     8     9   ar
    18     9    22    1
    19    22    23    1
    20    23    24   ar
    21    24    25   ar
    22    25    26   ar
    23    26    27    1
    24    26    28   ar
    25    28    29   ar
    26    13    14    1
    27    14    15    1
    28    20    21   ar
    29    21    17   ar
    30    15    10    1
    31     9     1   ar
    32    29    23   ar
    33     8     3   ar
@<TRIPOS>MOLECULE
*****
 29 33 0 0 0
SMALL
GASTEIGER

@<TRIPOS>ATOM
      1 C         141.7411  139.2384  161.8754 C.ar    1  UNL1        0.2014
      2 N         142.8045  139.0259  160.8391 N.ar    1  UNL1       -0.2136
      3 C         142.1288  138.6745  159.5468 C.ar    1  UNL1        0.0999
      4 C         142.6708  138.3581  158.1844 C.ar    1  UNL1        0.0207
      5 C         141.7317  138.0371  157.0597 C.ar    1  UNL1        0.0016
      6 C         140.2507  138.0324  157.2974 C.ar    1  UNL1        0.0016
      7 C         139.7087  138.3487  158.6598 C.ar    1  UNL1        0.0188
      8 C         140.6478  138.6698  159.7845 C.ar    1  UNL1        0.0801
      9 N         140.4082  139.0183  161.2237 N.ar    1  UNL1       -0.2954
     10 C         142.4290  140.3424  166.1833 C.3     1  UNL1        0.1086
     11 C         142.1867  138.9112  165.8054 C.3     1  UNL1        0.0459
     12 C         141.9574  138.5432  164.3694 C.3     1  UNL1        0.0955
     13 N         141.9704  139.6064  163.3114 N.pl3   1  UNL1       -0.2794
     14 C         142.2127  141.0376  163.6894 C.3     1  UNL1        0.0955
     15 C         142.4420  141.4056  165.1253 C.3     1  UNL1        0.0459
     16 C         143.1515  143.1562  170.5926 C.3     1  UNL1        0.0343
     17 C         142.9904  142.0038  169.6461 C.ar    1  UNL1        0.0177
     18 C         143.0318  140.5497  170.0121 C.ar    1  UNL1        0.1174
     19 N         142.8266  139.7504  168.7595 N.ar    1  UNL1       -0.1681
     20 N         142.6583  140.7104  167.6193 N.ar    1  UNL1       -0.2516
     21 C         142.7595  142.1031  168.1673 C.ar    1  UNL1        0.0923
     22 C         139.0705  139.1276  161.8934 C.3     1  UNL1        0.1354
     23 C         138.6548  140.4194  162.5323 C.ar    1  UNL1        0.0006
     24 C         138.5516  140.5186  164.0255 C.ar    1  UNL1       -0.0001
     25 C         138.1359  141.8105  164.6644 C.ar    1  UNL1        0.0294
     26 C         137.8234  143.0032  163.8101 C.ar    1  UNL1        0.1401
     27 F         137.4077  144.2951  164.4490 F       1  UNL1       -0.2042
     28 C         137.9266  142.9040  162.3170 C.ar    1  UNL1        0.0294
     29 C         138.3423  141.6122  161.6781 C.ar    1  UNL1       -0.0001
@<TRIPOS>BOND
     1    16    17    1
     2    17    18   ar
     3    18    19   ar
     4    19    20   ar
     5    20    10    1
     6    10    11    1
     7    11    12    1
     8    12    13    1
     9    13     1    1
    10     1     2   ar
    11     2     3   ar
    12     3     4   ar
    13     4     5   ar
    14     5     6   ar
    15     6     7   ar
    16     7     8   ar
    17     8     9   ar
    18     9    22    1
    19    22    23    1
    20    23    24   ar
    21    24    25   ar
    22    25    26   ar
    23    26    27    1
    24    26    28   ar
    25    28    29   ar
    26    13    14    1
    27    14    15    1
    28    20    21   ar
    29    21    17   ar
    30    15    10    1
    31     9     1   ar
    32    29    23   ar
    33     8     3   ar
@<TRIPOS>MOLECULE
*****
 29 33 0 0 0
SMALL
GASTEIGER

@<TRIPOS>ATOM
      1 C         141.8325  141.1344  165.6089 C.ar    1  UNL1        0.2014
      2 N         142.9672  140.9898  166.5792 N.ar    1  UNL1       -0.2136
      3 C         142.5995  141.7229  167.8351 C.ar    1  UNL1        0.0999
      4 C         143.3289  141.9234  169.1304 C.ar    1  UNL1        0.0207
      5 C         142.6963  142.7215  170.2316 C.ar    1  UNL1        0.0016
      6 C         141.3343  143.3192  170.0375 C.ar    1  UNL1        0.0016
      7 C         140.6049  143.1187  168.7423 C.ar    1  UNL1        0.0188
      8 C         141.2375  142.3206  167.6411 C.ar    1  UNL1        0.0801
      9 N         140.7635  141.9569  166.2652 N.ar    1  UNL1       -0.2954
     10 C         141.6648  139.4047  161.4580 C.3     1  UNL1        0.1086
     11 C         141.2386  138.5762  162.6335 C.3     1  UNL1        0.0459
     12 C         141.2945  139.1528  164.0172 C.3     1  UNL1        0.0955
     13 N         141.7766  140.5579  164.2253 N.pl3   1  UNL1       -0.2794
     14 C         142.2028  141.3863  163.0497 C.3     1  UNL1        0.0955
     15 C         142.1469  140.8097  161.6661 C.3     1  UNL1        0.0459
     16 C         142.9971  136.9061  157.0012 C.3     1  UNL1        0.0343
     17 C         142.2213  137.6796  158.0258 C.ar    1  UNL1        0.0177
     18 C         140.8245  138.2020  157.8645 C.ar    1  UNL1        0.1174
     19 N         140.4461  138.9118  159.1306 N.ar    1  UNL1       -0.1681
     20 N         141.6089  138.8281  160.0744 N.ar    1  UNL1       -0.2516
     21 C         142.7061  138.0665  159.3916 C.ar    1  UNL1        0.0923
     22 C         139.4508  142.3471  165.6531 C.3     1  UNL1        0.1354
     23 C         139.4035  143.4052  164.5910 C.ar    1  UNL1        0.0006
     24 C         140.6016  144.2732  164.3432 C.ar    1  UNL1       -0.0001
     25 C         140.5544  145.3314  163.2811 C.ar    1  UNL1        0.0294
     26 C         139.3091  145.5215  162.4667 C.ar    1  UNL1        0.1401
     27 F         139.2619  146.5796  161.4046 F       1  UNL1       -0.2042
     28 C         138.1111  144.6535  162.7145 C.ar    1  UNL1        0.0294
     29 C         138.1583  143.5954  163.7766 C.ar    1  UNL1       -0.0001
@<TRIPOS>BOND
     1    16    17    1
     2    17    18   ar
     3    18    19   ar
     4    19    20   ar
     5    20    10    1
     6    10    11    1
     7    11    12    1
     8    12    13    1
     9    13     1    1
    10     1     2   ar
    11     2     3   ar
    12     3     4   ar
    13     4     5   ar
    14     5     6   ar
    15     6     7   ar
    16     7     8   ar
    17     8     9   ar
    18     9    22    1
    19    22    23    1
    20    23    24   ar
    21    24    25   ar
    22    25    26   ar
    23    26    27    1
    24    26    28   ar
    25    28    29   ar
    26    13    14    1
    27    14    15    1
    28    20    21   ar
    29    21    17   ar
    30    15    10    1
    31     9     1   ar
    32    29    23   ar
    33     8     3   ar
