@<TRIPOS>MOLECULE
*****
 32 35 0 0 0
SMALL
GASTEIGER

@<TRIPOS>ATOM
      1 C         140.1130  139.6652  163.0667 C.ar    1  UNL1       -0.0176
      2 C         140.8672  138.3897  163.2993 C.ar    1  UNL1       -0.0039
      3 C         141.7006  137.8001  162.2003 C.ar    1  UNL1       -0.0003
      4 C         141.7798  138.4860  160.8687 C.ar    1  UNL1       -0.0003
      5 C         141.0256  139.7616  160.6360 C.ar    1  UNL1       -0.0003
      6 C         140.1922  140.3511  161.7350 C.ar    1  UNL1       -0.0039
      7 C         142.6132  137.8964  159.7698 C.2     1  UNL1       -0.0032
      8 C         142.0409  137.7489  158.3911 C.2     1  UNL1       -0.0088
      9 C         142.8744  137.1592  157.2922 C.3     1  UNL1        0.0989
     10 N         142.6051  135.7635  156.8132 N.3     1  UNL1       -0.2665
     11 C         143.3395  134.6065  157.4229 C.3     1  UNL1        0.0899
     12 C         143.0702  133.2107  156.9439 C.3     1  UNL1        0.0896
     13 N         142.0663  132.9721  155.8551 N.3     1  UNL1       -0.2716
     14 C         141.3319  134.1291  155.2454 C.3     1  UNL1        0.0896
     15 C         141.6013  135.5248  155.7244 C.3     1  UNL1        0.0899
     16 C         141.7970  131.5763  155.3761 C.3     1  UNL1        0.0577
     17 C         140.5818  131.2901  154.5447 C.3     1  UNL1        0.0173
     18 C         142.7429  130.4669  155.7286 C.3     1  UNL1        0.0173
     19 C         139.2795  140.2549  164.1657 C.3     1  UNL1        0.0570
     20 C         139.2204  139.6299  166.7639 C.ar    1  UNL1        0.0782
     21 N         140.0764  139.9535  167.9524 N.ar    1  UNL1       -0.1687
     22 N         141.1997  140.8330  167.4889 N.ar    1  UNL1       -0.2168
     23 C         142.3490  141.4619  168.2194 C.ar    1  UNL1        0.0636
     24 C         142.5108  141.2419  169.6943 C.3     1  UNL1        0.0522
     25 C         143.3364  142.3108  167.4749 C.ar    1  UNL1        0.0296
     26 C         143.1746  142.5307  165.9999 C.ar    1  UNL1        0.0622
     27 C         144.1621  143.3796  165.2554 C.3     1  UNL1        0.0522
     28 N         142.0254  141.9018  165.2695 N.ar    1  UNL1       -0.2311
     29 C         141.0379  141.0529  166.0140 C.ar    1  UNL1        0.1604
     30 C         139.8146  140.3094  165.5659 C.ar    1  UNL1        0.0332
     31 C         138.0186  137.4063  166.1630 C.3     1  UNL1        0.0067
     32 C         137.9867  138.7767  166.7721 C.3     1  UNL1        0.0474
@<TRIPOS>BOND
     1    31    32    1
     2    32    20    1
     3    20    21   ar
     4    21    22   ar
     5    22    23   ar
     6    23    24    1
     7    23    25   ar
     8    25    26   ar
     9    26    27    1
    10    26    28   ar
    11    28    29   ar
    12    29    30   ar
    13    30    19    1
    14    19     1    1
    15     1     2   ar
    16     2     3   ar
    17     3     4   ar
    18     4     7    1
    19     7     8    2
    20     8     9    1
    21     9    10    1
    22    10    11    1
    23    11    12    1
    24    12    13    1
    25    13    16    1
    26    16    17    1
    27    16    18    1
    28    13    14    1
    29    14    15    1
    30     4     5   ar
    31     5     6   ar
    32    30    20   ar
    33     6     1   ar
    34    29    22   ar
    35    15    10    1
@<TRIPOS>MOLECULE
*****
 32 35 0 0 0
SMALL
GASTEIGER

@<TRIPOS>ATOM
      1 C         138.3254  139.8907  162.8396 C.ar    1  UNL1       -0.0176
      2 C         138.9800  138.5586  162.6224 C.ar    1  UNL1       -0.0039
      3 C         139.4012  138.1460  161.2432 C.ar    1  UNL1       -0.0003
      4 C         139.1678  139.0654  160.0812 C.ar    1  UNL1       -0.0003
      5 C         138.5133  140.3974  160.2983 C.ar    1  UNL1       -0.0003
      6 C         138.0921  140.8101  161.6776 C.ar    1  UNL1       -0.0039
      7 C         139.5891  138.6526  158.7020 C.2     1  UNL1       -0.0032
      8 C         141.0371  138.7025  158.3135 C.2     1  UNL1       -0.0088
      9 C         141.4582  138.2898  156.9343 C.3     1  UNL1        0.0989
     10 N         141.8233  136.8615  156.6576 N.3     1  UNL1       -0.2665
     11 C         141.0581  136.0766  155.6337 C.3     1  UNL1        0.0899
     12 C         141.4232  134.6482  155.3570 C.3     1  UNL1        0.0896
     13 N         142.5536  134.0047  156.1043 N.3     1  UNL1       -0.2716
     14 C         143.3188  134.7896  157.1283 C.3     1  UNL1        0.0896
     15 C         142.9536  136.2180  157.4049 C.3     1  UNL1        0.0899
     16 C         142.9187  132.5764  155.8277 C.3     1  UNL1        0.0577
     17 C         141.8564  131.5936  155.4332 C.3     1  UNL1        0.0173
     18 C         144.3461  132.1309  155.9455 C.3     1  UNL1        0.0173
     19 C         137.9042  140.3034  164.2189 C.3     1  UNL1        0.0570
     20 C         138.8307  139.5219  166.6012 C.ar    1  UNL1        0.0782
     21 N         140.0375  139.8499  167.4295 N.ar    1  UNL1       -0.1687
     22 N         140.8589  140.8530  166.6751 N.ar    1  UNL1       -0.2168
     23 C         142.1531  141.5383  166.9997 C.ar    1  UNL1        0.0636
     24 C         142.8523  141.2463  168.2942 C.3     1  UNL1        0.0522
     25 C         142.7481  142.5155  166.0297 C.ar    1  UNL1        0.0296
     26 C         142.0489  142.8075  164.7352 C.ar    1  UNL1        0.0622
     27 C         142.6439  143.7849  163.7652 C.3     1  UNL1        0.0522
     28 N         140.7546  142.1223  164.4106 N.ar    1  UNL1       -0.2311
     29 C         140.1597  141.1450  165.3806 C.ar    1  UNL1        0.1604
     30 C         138.9062  140.3223  165.3349 C.ar    1  UNL1        0.0332
     31 C         137.7769  137.1510  166.4664 C.3     1  UNL1        0.0067
     32 C         137.7400  138.5620  166.9739 C.3     1  UNL1        0.0474
@<TRIPOS>BOND
     1    31    32    1
     2    32    20    1
     3    20    21   ar
     4    21    22   ar
     5    22    23   ar
     6    23    24    1
     7    23    25   ar
     8    25    26   ar
     9    26    27    1
    10    26    28   ar
    11    28    29   ar
    12    29    30   ar
    13    30    19    1
    14    19     1    1
    15     1     2   ar
    16     2     3   ar
    17     3     4   ar
    18     4     7    1
    19     7     8    2
    20     8     9    1
    21     9    10    1
    22    10    11    1
    23    11    12    1
    24    12    13    1
    25    13    16    1
    26    16    17    1
    27    16    18    1
    28    13    14    1
    29    14    15    1
    30     4     5   ar
    31     5     6   ar
    32    30    20   ar
    33     6     1   ar
    34    29    22   ar
    35    15    10    1
@<TRIPOS>MOLECULE
*****
 32 35 0 0 0
SMALL
GASTEIGER

@<TRIPOS>ATOM
      1 C         142.9760  142.0409  165.5100 C.ar    1  UNL1       -0.0176
      2 C         144.0606  141.3700  164.7202 C.ar    1  UNL1       -0.0039
      3 C         144.3353  141.7985  163.3092 C.ar    1  UNL1       -0.0003
      4 C         143.5255  142.8978  162.6881 C.ar    1  UNL1       -0.0003
      5 C         142.4410  143.5686  163.4779 C.ar    1  UNL1       -0.0003
      6 C         142.1663  143.1401  164.8888 C.ar    1  UNL1       -0.0039
      7 C         143.8003  143.3262  161.2771 C.2     1  UNL1       -0.0032
      8 C         142.8515  142.9455  160.1793 C.2     1  UNL1       -0.0088
      9 C         143.1264  143.3740  158.7684 C.3     1  UNL1        0.0989
     10 N         142.0423  144.0172  157.9553 N.3     1  UNL1       -0.2665
     11 C         141.6771  145.4524  158.1938 C.3     1  UNL1        0.0899
     12 C         140.5930  146.0956  157.3807 C.3     1  UNL1        0.0896
     13 N         139.8741  145.3035  156.3290 N.3     1  UNL1       -0.2716
     14 C         140.2393  143.8684  156.0905 C.3     1  UNL1        0.0896
     15 C         141.3234  143.2253  156.9036 C.3     1  UNL1        0.0899
     16 C         138.7900  145.9467  155.5160 C.3     1  UNL1        0.0577
     17 C         138.8151  147.4261  155.2692 C.3     1  UNL1        0.0173
     18 C         137.6810  145.1105  154.9497 C.3     1  UNL1        0.0173
     19 C         142.7013  141.6124  166.9211 C.3     1  UNL1        0.0570
     20 C         140.5676  141.2212  168.4830 C.ar    1  UNL1        0.0782
     21 N         139.3546  140.3410  168.4206 N.ar    1  UNL1       -0.1687
     22 N         139.4365  139.5272  167.1632 N.ar    1  UNL1       -0.2168
     23 C         138.5237  138.4914  166.5768 C.ar    1  UNL1        0.0636
     24 C         137.2601  138.1142  167.2916 C.3     1  UNL1        0.0522
     25 C         138.8746  137.8328  165.2756 C.ar    1  UNL1        0.0296
     26 C         140.1383  138.2101  164.5609 C.ar    1  UNL1        0.0622
     27 C         140.4891  137.5514  163.2596 C.3     1  UNL1        0.0522
     28 N         141.0510  139.2458  165.1473 N.ar    1  UNL1       -0.2311
     29 C         140.7002  139.9044  166.4485 C.ar    1  UNL1        0.1604
     30 C         141.3992  140.9513  167.2641 C.ar    1  UNL1        0.0332
     31 C         140.3882  143.6098  169.4892 C.3     1  UNL1        0.0067
     32 C         140.8920  142.1994  169.5728 C.3     1  UNL1        0.0474
@<TRIPOS>BOND
     1    31    32    1
     2    32    20    1
     3    20    21   ar
     4    21    22   ar
     5    22    23   ar
     6    23    24    1
     7    23    25   ar
     8    25    26   ar
     9    26    27    1
    10    26    28   ar
    11    28    29   ar
    12    29    30   ar
    13    30    19    1
    14    19     1    1
    15     1     2   ar
    16     2     3   ar
    17     3     4   ar
    18     4     7    1
    19     7     8    2
    20     8     9    1
    21     9    10    1
    22    10    11    1
    23    11    12    1
    24    12    13    1
    25    13    16    1
    26    16    17    1
    27    16    18    1
    28    13    14    1
    29    14    15    1
    30     4     5   ar
    31     5     6   ar
    32    30    20   ar
    33     6     1   ar
    34    29    22   ar
    35    15    10    1
@<TRIPOS>MOLECULE
*****
 32 35 0 0 0
SMALL
GASTEIGER

@<TRIPOS>ATOM
      1 C         137.9633  141.7986  161.6709 C.ar    1  UNL1       -0.0176
      2 C         137.7867  140.3128  161.5650 C.ar    1  UNL1       -0.0039
      3 C         138.1853  139.5979  160.3081 C.ar    1  UNL1       -0.0003
      4 C         138.7605  140.3687  159.1570 C.ar    1  UNL1       -0.0003
      5 C         138.9371  141.8545  159.2629 C.ar    1  UNL1       -0.0003
      6 C         138.5385  142.5694  160.5198 C.ar    1  UNL1       -0.0039
      7 C         139.1591  139.6537  157.9001 C.2     1  UNL1       -0.0032
      8 C         140.5328  139.8483  157.3299 C.2     1  UNL1       -0.0088
      9 C         140.9313  139.1332  156.0730 C.3     1  UNL1        0.0989
     10 N         141.3906  137.7066  156.1352 N.3     1  UNL1       -0.2665
     11 C         142.5117  137.3190  157.0533 C.3     1  UNL1        0.0899
     12 C         142.9710  135.8924  157.1155 C.3     1  UNL1        0.0896
     13 N         142.3091  134.8533  156.2597 N.3     1  UNL1       -0.2716
     14 C         141.1880  135.2410  155.3416 C.3     1  UNL1        0.0896
     15 C         140.7288  136.6676  155.2794 C.3     1  UNL1        0.0899
     16 C         142.7683  133.4267  156.3219 C.3     1  UNL1        0.0577
     17 C         141.9837  132.3551  155.6248 C.3     1  UNL1        0.0173
     18 C         144.0123  133.0718  157.0813 C.3     1  UNL1        0.0173
     19 C         137.5647  142.5136  162.9279 C.3     1  UNL1        0.0570
     20 C         139.4411  143.7028  164.4145 C.ar    1  UNL1        0.0782
     21 N         140.1984  143.3385  165.6570 N.ar    1  UNL1       -0.1687
     22 N         139.7365  141.9820  166.1005 N.ar    1  UNL1       -0.2168
     23 C         140.1308  141.1173  167.2610 C.ar    1  UNL1        0.0636
     24 C         141.1737  141.5914  168.2294 C.3     1  UNL1        0.0522
     25 C         139.4822  139.7785  167.4531 C.ar    1  UNL1        0.0296
     26 C         138.4394  139.3045  166.4848 C.ar    1  UNL1        0.0622
     27 C         137.7908  137.9656  166.6770 C.3     1  UNL1        0.0522
     28 N         138.0451  140.1692  165.3243 N.ar    1  UNL1       -0.2311
     29 C         138.6937  141.5079  165.1322 C.ar    1  UNL1        0.1604
     30 C         138.5111  142.5714  164.0902 C.ar    1  UNL1        0.0332
     31 C         140.8594  145.2554  162.8889 C.3     1  UNL1        0.0067
     32 C         139.5879  144.9750  163.6336 C.3     1  UNL1        0.0474
@<TRIPOS>BOND
     1    31    32    1
     2    32    20    1
     3    20    21   ar
     4    21    22   ar
     5    22    23   ar
     6    23    24    1
     7    23    25   ar
     8    25    26   ar
     9    26    27    1
    10    26    28   ar
    11    28    29   ar
    12    29    30   ar
    13    30    19    1
    14    19     1    1
    15     1     2   ar
    16     2     3   ar
    17     3     4   ar
    18     4     7    1
    19     7     8    2
    20     8     9    1
    21     9    10    1
    22    10    11    1
    23    11    12    1
    24    12    13    1
    25    13    16    1
    26    16    17    1
    27    16    18    1
    28    13    14    1
    29    14    15    1
    30     4     5   ar
    31     5     6   ar
    32    30    20   ar
    33     6     1   ar
    34    29    22   ar
    35    15    10    1
@<TRIPOS>MOLECULE
*****
 32 35 0 0 0
SMALL
GASTEIGER

@<TRIPOS>ATOM
      1 C         142.0017  138.7973  162.9941 C.ar    1  UNL1       -0.0176
      2 C         140.8976  138.7750  161.9789 C.ar    1  UNL1       -0.0039
      3 C         141.1880  138.3706  160.5640 C.ar    1  UNL1       -0.0003
      4 C         142.5823  137.9886  160.1642 C.ar    1  UNL1       -0.0003
      5 C         143.6864  138.0109  161.1794 C.ar    1  UNL1       -0.0003
      6 C         143.3960  138.4153  162.5943 C.ar    1  UNL1       -0.0039
      7 C         142.8726  137.5842  158.7492 C.2     1  UNL1       -0.0032
      8 C         141.7576  137.5005  157.7492 C.2     1  UNL1       -0.0088
      9 C         142.0480  137.0961  156.3343 C.3     1  UNL1        0.0989
     10 N         142.2903  135.6538  156.0012 N.3     1  UNL1       -0.2665
     11 C         141.2199  134.8504  155.3239 C.3     1  UNL1        0.0899
     12 C         141.4622  133.4080  154.9909 C.3     1  UNL1        0.0896
     13 N         142.7749  132.7690  155.3351 N.3     1  UNL1       -0.2716
     14 C         143.8454  133.5724  156.0124 C.3     1  UNL1        0.0896
     15 C         143.6030  135.0148  156.3455 C.3     1  UNL1        0.0899
     16 C         143.0172  131.3267  155.0021 C.3     1  UNL1        0.0577
     17 C         141.8713  130.4479  154.5966 C.3     1  UNL1        0.0173
     18 C         144.4055  130.7633  155.0746 C.3     1  UNL1        0.0173
     19 C         141.7114  139.2017  164.4092 C.3     1  UNL1        0.0570
     20 C         139.3559  140.1652  165.2269 C.ar    1  UNL1        0.0782
     21 N         138.7544  141.5339  165.3485 N.ar    1  UNL1       -0.1687
     22 N         139.7742  142.5314  164.8847 N.ar    1  UNL1       -0.2168
     23 C         139.7403  144.0274  164.7814 C.ar    1  UNL1        0.0636
     24 C         138.5084  144.7797  165.1897 C.3     1  UNL1        0.0522
     25 C         140.9381  144.7712  164.2698 C.ar    1  UNL1        0.0296
     26 C         142.1700  144.0189  163.8614 C.ar    1  UNL1        0.0622
     27 C         143.3679  144.7628  163.3498 C.3     1  UNL1        0.0522
     28 N         142.2039  142.5229  163.9647 N.ar    1  UNL1       -0.2311
     29 C         141.0060  141.7791  164.4764 C.ar    1  UNL1        0.1604
     30 C         140.7475  140.3168  164.6878 C.ar    1  UNL1        0.0332
     31 C         137.8295  138.7837  166.8116 C.3     1  UNL1        0.0067
     32 C         138.6839  138.8720  165.5819 C.3     1  UNL1        0.0474
@<TRIPOS>BOND
     1    31    32    1
     2    32    20    1
     3    20    21   ar
     4    21    22   ar
     5    22    23   ar
     6    23    24    1
     7    23    25   ar
     8    25    26   ar
     9    26    27    1
    10    26    28   ar
    11    28    29   ar
    12    29    30   ar
    13    30    19    1
    14    19     1    1
    15     1     2   ar
    16     2     3   ar
    17     3     4   ar
    18     4     7    1
    19     7     8    2
    20     8     9    1
    21     9    10    1
    22    10    11    1
    23    11    12    1
    24    12    13    1
    25    13    16    1
    26    16    17    1
    27    16    18    1
    28    13    14    1
    29    14    15    1
    30     4     5   ar
    31     5     6   ar
    32    30    20   ar
    33     6     1   ar
    34    29    22   ar
    35    15    10    1
@<TRIPOS>MOLECULE
*****
 32 35 0 0 0
SMALL
GASTEIGER

@<TRIPOS>ATOM
      1 C         142.1579  138.0117  159.1530 C.ar    1  UNL1       -0.0176
      2 C         142.9404  137.6977  160.3937 C.ar    1  UNL1       -0.0039
      3 C         142.3321  137.9352  161.7440 C.ar    1  UNL1       -0.0003
      4 C         140.9415  138.4866  161.8538 C.ar    1  UNL1       -0.0003
      5 C         140.1590  138.8006  160.6132 C.ar    1  UNL1       -0.0003
      6 C         140.7673  138.5631  159.2628 C.ar    1  UNL1       -0.0039
      7 C         140.3333  138.7241  163.2043 C.2     1  UNL1       -0.0032
      8 C         138.8890  139.1128  163.3186 C.2     1  UNL1       -0.0088
      9 C         138.2809  139.3503  164.6691 C.3     1  UNL1        0.0989
     10 N         139.0175  140.1654  165.6904 N.3     1  UNL1       -0.2665
     11 C         139.3289  139.5790  167.0354 C.3     1  UNL1        0.0899
     12 C         140.0655  140.3941  168.0567 C.3     1  UNL1        0.0896
     13 N         140.4906  141.7958  167.7329 N.3     1  UNL1       -0.2716
     14 C         140.1792  142.3822  166.3879 C.3     1  UNL1        0.0896
     15 C         139.4426  141.5670  165.3667 C.3     1  UNL1        0.0899
     16 C         141.2272  142.6109  168.7542 C.3     1  UNL1        0.0577
     17 C         142.6990  142.4055  168.9582 C.3     1  UNL1        0.0173
     18 C         140.4919  143.6314  169.5714 C.3     1  UNL1        0.0173
     19 C         142.7662  137.7742  157.8025 C.3     1  UNL1        0.0570
     20 C         141.0816  136.8698  155.9345 C.ar    1  UNL1        0.0782
     21 N         140.8611  135.5514  155.2540 N.ar    1  UNL1       -0.1687
     22 N         141.8546  134.5727  155.8063 N.ar    1  UNL1       -0.2168
     23 C         142.1071  133.1240  155.5108 C.ar    1  UNL1        0.0636
     24 C         141.2725  132.4104  154.4889 C.3     1  UNL1        0.0522
     25 C         143.1942  132.3888  156.2372 C.ar    1  UNL1        0.0296
     26 C         144.0288  133.1023  157.2591 C.ar    1  UNL1        0.0622
     27 C         145.1159  132.3671  157.9855 C.3     1  UNL1        0.0522
     28 N         143.7762  134.5511  157.5546 N.ar    1  UNL1       -0.2311
     29 C         142.6891  135.2862  156.8282 C.ar    1  UNL1        0.1604
     30 C         142.2114  136.7059  156.9074 C.ar    1  UNL1        0.0332
     31 C         138.9864  138.0728  154.9789 C.3     1  UNL1        0.0067
     32 C         140.3082  138.1307  155.6857 C.3     1  UNL1        0.0474
@<TRIPOS>BOND
     1    31    32    1
     2    32    20    1
     3    20    21   ar
     4    21    22   ar
     5    22    23   ar
     6    23    24    1
     7    23    25   ar
     8    25    26   ar
     9    26    27    1
    10    26    28   ar
    11    28    29   ar
    12    29    30   ar
    13    30    19    1
    14    19     1    1
    15     1     2   ar
    16     2     3   ar
    17     3     4   ar
    18     4     7    1
    19     7     8    2
    20     8     9    1
    21     9    10    1
    22    10    11    1
    23    11    12    1
    24    12    13    1
    25    13    16    1
    26    16    17    1
    27    16    18    1
    28    13    14    1
    29    14    15    1
    30     4     5   ar
    31     5     6   ar
    32    30    20   ar
    33     6     1   ar
    34    29    22   ar
    35    15    10    1
@<TRIPOS>MOLECULE
*****
 32 35 0 0 0
SMALL
GASTEIGER

@<TRIPOS>ATOM
      1 C         141.8743  138.9481  164.7826 C.ar    1  UNL1       -0.0176
      2 C         141.5801  137.6065  164.1796 C.ar    1  UNL1       -0.0039
      3 C         141.2168  137.5001  162.7282 C.ar    1  UNL1       -0.0003
      4 C         141.1478  138.7351  161.8798 C.ar    1  UNL1       -0.0003
      5 C         141.4420  140.0767  162.4827 C.ar    1  UNL1       -0.0003
      6 C         141.8053  140.1832  163.9341 C.ar    1  UNL1       -0.0039
      7 C         140.7845  138.6286  160.4283 C.2     1  UNL1       -0.0032
      8 C         141.8614  138.6199  159.3842 C.2     1  UNL1       -0.0088
      9 C         141.4981  138.5134  157.9328 C.3     1  UNL1        0.0989
     10 N         141.7165  137.2242  157.1977 N.3     1  UNL1       -0.2665
     11 C         142.8494  136.3215  157.5872 C.3     1  UNL1        0.0899
     12 C         143.0678  135.0323  156.8521 C.3     1  UNL1        0.0896
     13 N         142.1534  134.6459  155.7275 N.3     1  UNL1       -0.2716
     14 C         141.0206  135.5486  155.3380 C.3     1  UNL1        0.0896
     15 C         140.8022  136.8378  156.0732 C.3     1  UNL1        0.0899
     16 C         142.3719  133.3567  154.9924 C.3     1  UNL1        0.0577
     17 C         141.3699  132.8932  153.9770 C.3     1  UNL1        0.0173
     18 C         143.5924  132.5311  155.2728 C.3     1  UNL1        0.0173
     19 C         142.2376  139.0547  166.2341 C.3     1  UNL1        0.0570
     20 C         139.8701  139.7772  167.2431 C.ar    1  UNL1        0.0782
     21 N         139.4185  140.7248  168.3145 N.ar    1  UNL1       -0.1687
     22 N         140.6361  141.3737  168.9030 N.ar    1  UNL1       -0.2168
     23 C         140.8039  142.3916  169.9918 C.ar    1  UNL1        0.0636
     24 C         139.5997  142.9383  170.6995 C.3     1  UNL1        0.0522
     25 C         142.1760  142.8629  170.3729 C.ar    1  UNL1        0.0296
     26 C         143.3803  142.3162  169.6652 C.ar    1  UNL1        0.0622
     27 C         144.7524  142.7875  170.0463 C.3     1  UNL1        0.0522
     28 N         143.2125  141.2983  168.5764 N.ar    1  UNL1       -0.2311
     29 C         141.8404  140.8270  168.1953 C.ar    1  UNL1        0.1604
     30 C         141.3670  139.8403  167.1694 C.ar    1  UNL1        0.0332
     31 C         137.6645  138.4400  166.9317 C.3     1  UNL1        0.0067
     32 C         138.9811  138.9173  166.3945 C.3     1  UNL1        0.0474
@<TRIPOS>BOND
     1    31    32    1
     2    32    20    1
     3    20    21   ar
     4    21    22   ar
     5    22    23   ar
     6    23    24    1
     7    23    25   ar
     8    25    26   ar
     9    26    27    1
    10    26    28   ar
    11    28    29   ar
    12    29    30   ar
    13    30    19    1
    14    19     1    1
    15     1     2   ar
    16     2     3   ar
    17     3     4   ar
    18     4     7    1
    19     7     8    2
    20     8     9    1
    21     9    10    1
    22    10    11    1
    23    11    12    1
    24    12    13    1
    25    13    16    1
    26    16    17    1
    27    16    18    1
    28    13    14    1
    29    14    15    1
    30     4     5   ar
    31     5     6   ar
    32    30    20   ar
    33     6     1   ar
    34    29    22   ar
    35    15    10    1
@<TRIPOS>MOLECULE
*****
 32 35 0 0 0
SMALL
GASTEIGER

@<TRIPOS>ATOM
      1 C         138.3390  139.0162  165.8429 C.ar    1  UNL1       -0.0176
      2 C         138.7707  137.7167  165.2304 C.ar    1  UNL1       -0.0039
      3 C         138.8395  137.5770  163.7386 C.ar    1  UNL1       -0.0003
      4 C         138.4766  138.7367  162.8591 C.ar    1  UNL1       -0.0003
      5 C         138.0449  140.0362  163.4716 C.ar    1  UNL1       -0.0003
      6 C         137.9761  140.1758  164.9634 C.ar    1  UNL1       -0.0039
      7 C         138.5455  138.5970  161.3672 C.2     1  UNL1       -0.0032
      8 C         139.1894  139.6715  160.5421 C.2     1  UNL1       -0.0088
      9 C         139.2582  139.5316  159.0503 C.3     1  UNL1        0.0989
     10 N         140.2819  138.6289  158.4281 N.3     1  UNL1       -0.2665
     11 C         141.6451  138.5056  159.0418 C.3     1  UNL1        0.0899
     12 C         142.6688  137.6029  158.4196 C.3     1  UNL1        0.0896
     13 N         142.3293  136.8235  157.1836 N.3     1  UNL1       -0.2716
     14 C         140.9662  136.9468  156.5699 C.3     1  UNL1        0.0896
     15 C         139.9425  137.8496  157.1922 C.3     1  UNL1        0.0899
     16 C         143.3531  135.9208  156.5614 C.3     1  UNL1        0.0577
     17 C         144.1912  136.4126  155.4188 C.3     1  UNL1        0.0173
     18 C         143.5386  134.5263  157.0819 C.3     1  UNL1        0.0173
     19 C         138.2702  139.1559  167.3348 C.3     1  UNL1        0.0570
     20 C         139.2085  140.4774  169.4604 C.ar    1  UNL1        0.0782
     21 N         140.4845  141.1967  169.7837 N.ar    1  UNL1       -0.1687
     22 N         141.3840  141.1058  168.5867 N.ar    1  UNL1       -0.2168
     23 C         142.7656  141.6290  168.3275 C.ar    1  UNL1        0.0636
     24 C         143.4857  142.4046  169.3905 C.3     1  UNL1        0.0522
     25 C         143.4273  141.3766  167.0052 C.ar    1  UNL1        0.0296
     26 C         142.7073  140.6010  165.9422 C.ar    1  UNL1        0.0622
     27 C         143.3690  140.3486  164.6198 C.3     1  UNL1        0.0522
     28 N         141.3256  140.0778  166.2014 N.ar    1  UNL1       -0.2311
     29 C         140.6640  140.3302  167.5237 C.ar    1  UNL1        0.1604
     30 C         139.3195  139.9418  168.0637 C.ar    1  UNL1        0.0332
     31 C         137.4788  138.9555  170.6612 C.3     1  UNL1        0.0067
     32 C         138.0288  140.3211  170.3735 C.3     1  UNL1        0.0474
@<TRIPOS>BOND
     1    31    32    1
     2    32    20    1
     3    20    21   ar
     4    21    22   ar
     5    22    23   ar
     6    23    24    1
     7    23    25   ar
     8    25    26   ar
     9    26    27    1
    10    26    28   ar
    11    28    29   ar
    12    29    30   ar
    13    30    19    1
    14    19     1    1
    15     1     2   ar
    16     2     3   ar
    17     3     4   ar
    18     4     7    1
    19     7     8    2
    20     8     9    1
    21     9    10    1
    22    10    11    1
    23    11    12    1
    24    12    13    1
    25    13    16    1
    26    16    17    1
    27    16    18    1
    28    13    14    1
    29    14    15    1
    30     4     5   ar
    31     5     6   ar
    32    30    20   ar
    33     6     1   ar
    34    29    22   ar
    35    15    10    1
@<TRIPOS>MOLECULE
*****
 32 35 0 0 0
SMALL
GASTEIGER

@<TRIPOS>ATOM
      1 C         143.4290  139.1952  163.2658 C.ar    1  UNL1       -0.0176
      2 C         142.1682  138.4047  163.0772 C.ar    1  UNL1       -0.0039
      3 C         141.7210  138.0243  161.6969 C.ar    1  UNL1       -0.0003
      4 C         142.5345  138.4344  160.5052 C.ar    1  UNL1       -0.0003
      5 C         143.7952  139.2250  160.6938 C.ar    1  UNL1       -0.0003
      6 C         144.2424  139.6053  162.0741 C.ar    1  UNL1       -0.0039
      7 C         142.0872  138.0540  159.1249 C.2     1  UNL1       -0.0032
      8 C         142.9320  137.1398  158.2880 C.2     1  UNL1       -0.0088
      9 C         142.4846  136.7594  156.9077 C.3     1  UNL1        0.0989
     10 N         142.3529  135.3127  156.5341 N.3     1  UNL1       -0.2665
     11 C         141.4117  134.9032  155.4403 C.3     1  UNL1        0.0899
     12 C         141.2800  133.4564  155.0667 C.3     1  UNL1        0.0896
     13 N         142.0895  132.4191  155.7870 N.3     1  UNL1       -0.2716
     14 C         143.0308  132.8286  156.8808 C.3     1  UNL1        0.0896
     15 C         143.1625  134.2754  157.2543 C.3     1  UNL1        0.0899
     16 C         141.9578  130.9723  155.4134 C.3     1  UNL1        0.0577
     17 C         143.0913  130.0247  155.6723 C.3     1  UNL1        0.0173
     18 C         140.6926  130.4734  154.7809 C.3     1  UNL1        0.0173
     19 C         143.8763  139.5756  164.6462 C.3     1  UNL1        0.0570
     20 C         142.5210  141.8585  164.9568 C.ar    1  UNL1        0.0782
     21 N         141.7898  142.5118  166.0919 N.ar    1  UNL1       -0.1687
     22 N         141.8914  141.6121  167.2878 N.ar    1  UNL1       -0.2168
     23 C         141.3635  141.7378  168.6862 C.ar    1  UNL1        0.0636
     24 C         140.5695  142.9472  169.0822 C.3     1  UNL1        0.0522
     25 C         141.6296  140.6541  169.6885 C.ar    1  UNL1        0.0296
     26 C         142.4236  139.4447  169.2925 C.ar    1  UNL1        0.0622
     27 C         142.6897  138.3609  170.2949 C.3     1  UNL1        0.0522
     28 N         142.9515  139.3189  167.8941 N.ar    1  UNL1       -0.2311
     29 C         142.6854  140.4026  166.8918 C.ar    1  UNL1        0.1604
     30 C         143.0745  140.5550  165.4511 C.ar    1  UNL1        0.0332
     31 C         141.4568  142.6781  162.7329 C.3     1  UNL1        0.0067
     32 C         142.6721  142.4116  163.5707 C.3     1  UNL1        0.0474
@<TRIPOS>BOND
     1    31    32    1
     2    32    20    1
     3    20    21   ar
     4    21    22   ar
     5    22    23   ar
     6    23    24    1
     7    23    25   ar
     8    25    26   ar
     9    26    27    1
    10    26    28   ar
    11    28    29   ar
    12    29    30   ar
    13    30    19    1
    14    19     1    1
    15     1     2   ar
    16     2     3   ar
    17     3     4   ar
    18     4     7    1
    19     7     8    2
    20     8     9    1
    21     9    10    1
    22    10    11    1
    23    11    12    1
    24    12    13    1
    25    13    16    1
    26    16    17    1
    27    16    18    1
    28    13    14    1
    29    14    15    1
    30     4     5   ar
    31     5     6   ar
    32    30    20   ar
    33     6     1   ar
    34    29    22   ar
    35    15    10    1
