@<TRIPOS>MOLECULE
*****
 27 29 0 0 0
SMALL
GASTEIGER

@<TRIPOS>ATOM
      1 C         140.9004  139.8246  166.0280 C.2     1  UNL1        0.2254
      2 O         140.5232  138.6234  165.2126 O.2     1  UNL1       -0.2749
      3 N         141.1022  141.1519  165.3590 N.am    1  UNL1       -0.2696
      4 C         140.9628  141.4299  163.8916 C.3     1  UNL1        0.1205
      5 C         141.2533  142.8841  163.6656 C.2     1  UNL1       -0.0024
      6 C         141.5723  143.5048  164.9933 C.2     1  UNL1       -0.0047
      7 C         141.4790  142.4343  166.0399 C.3     1  UNL1        0.1203
      8 C         141.2291  143.5930  162.3439 C.ar    1  UNL1        0.0271
      9 C         142.1623  143.1696  161.2485 C.ar    1  UNL1        0.0316
     10 C         142.1380  143.8785  159.9268 C.ar    1  UNL1        0.1403
     11 F         143.0712  143.4552  158.8314 F       1  UNL1       -0.2042
     12 C         141.1806  145.0108  159.7006 C.ar    1  UNL1        0.0319
     13 C         140.2474  145.4342  160.7960 C.ar    1  UNL1        0.0319
     14 C         140.2717  144.7253  162.1176 C.ar    1  UNL1        0.1400
     15 F         139.3385  145.1487  163.2131 F       1  UNL1       -0.2042
     16 C         141.7200  142.6145  167.5094 C.ar    1  UNL1        0.0029
     17 C         143.0836  142.3642  168.0820 C.ar    1  UNL1       -0.0021
     18 C         143.3246  142.5444  169.5515 C.ar    1  UNL1        0.0028
     19 C         142.2020  142.9749  170.4484 C.ar    1  UNL1        0.0366
     20 C         140.8383  143.2252  169.8758 C.ar    1  UNL1        0.1334
     21 O         139.7158  143.6558  170.7727 O.3     1  UNL1       -0.5055
     22 C         140.5974  143.0450  168.4063 C.ar    1  UNL1        0.0343
     23 H         139.8663  143.7683  171.6906 H       1  UNL1        0.2922
     24 C         142.5248  139.3667  167.3130 C.3     1  UNL1        0.0091
     25 C         141.0757  139.6985  167.5123 C.3     1  UNL1        0.0691
     26 C         139.6266  140.0304  167.7117 C.3     1  UNL1        0.0091
     27 C         141.2511  139.5725  168.9967 C.3     1  UNL1        0.0091
@<TRIPOS>BOND
     1    24    25    1
     2    25    26    1
     3    25    27    1
     4    25     1    1
     5     1     2    2
     6     1     3   am
     7     3     4    1
     8     4     5    1
     9     5     8    1
    10     8     9   ar
    11     9    10   ar
    12    10    11    1
    13    10    12   ar
    14    12    13   ar
    15    13    14   ar
    16    14    15    1
    17     5     6    2
    18     6     7    1
    19     7    16    1
    20    16    17   ar
    21    17    18   ar
    22    18    19   ar
    23    19    20   ar
    24    20    21    1
    25    20    22   ar
    26     7     3    1
    27    22    16   ar
    28    14     8   ar
    29    21    23    1
@<TRIPOS>MOLECULE
*****
 27 29 0 0 0
SMALL
GASTEIGER

@<TRIPOS>ATOM
      1 C         138.8011  140.7414  163.5421 C.2     1  UNL1        0.2254
      2 O         138.2214  139.3598  163.6143 O.2     1  UNL1       -0.2749
      3 N         139.5350  141.3092  164.7207 N.am    1  UNL1       -0.2696
      4 C         139.7675  140.6177  166.0313 C.3     1  UNL1        0.1205
      5 C         140.5414  141.5495  166.9162 C.2     1  UNL1       -0.0024
      6 C         140.7871  142.8168  166.1525 C.2     1  UNL1       -0.0047
      7 C         140.1652  142.6684  164.7956 C.3     1  UNL1        0.1203
      8 C         140.9906  141.2639  168.3186 C.ar    1  UNL1        0.0271
      9 C         141.6560  139.9591  168.6419 C.ar    1  UNL1        0.0316
     10 C         142.1052  139.6736  170.0443 C.ar    1  UNL1        0.1403
     11 F         142.7707  138.3687  170.3677 F       1  UNL1       -0.2042
     12 C         141.8889  140.6929  171.1233 C.ar    1  UNL1        0.0319
     13 C         141.2235  141.9977  170.8000 C.ar    1  UNL1        0.0319
     14 C         140.7743  142.2832  169.3976 C.ar    1  UNL1        0.1400
     15 F         140.1088  143.5880  169.0742 F       1  UNL1       -0.2042
     16 C         140.1722  143.6983  163.7050 C.ar    1  UNL1        0.0029
     17 C         139.0511  144.6897  163.6024 C.ar    1  UNL1       -0.0021
     18 C         139.0581  145.7196  162.5119 C.ar    1  UNL1        0.0028
     19 C         140.1861  145.7581  161.5240 C.ar    1  UNL1        0.0366
     20 C         141.3072  144.7667  161.6266 C.ar    1  UNL1        0.1334
     21 O         142.4352  144.8053  160.6386 O.3     1  UNL1       -0.5055
     22 C         141.3002  143.7369  162.7171 C.ar    1  UNL1        0.0343
     23 H         142.4396  145.4486  159.9574 H       1  UNL1        0.2922
     24 C         139.9084  140.9545  161.7454 C.3     1  UNL1        0.0091
     25 C         138.6471  141.5550  162.2914 C.3     1  UNL1        0.0691
     26 C         137.3856  142.1556  162.8375 C.3     1  UNL1        0.0091
     27 C         138.4930  142.3687  161.0407 C.3     1  UNL1        0.0091
@<TRIPOS>BOND
     1    24    25    1
     2    25    26    1
     3    25    27    1
     4    25     1    1
     5     1     2    2
     6     1     3   am
     7     3     4    1
     8     4     5    1
     9     5     8    1
    10     8     9   ar
    11     9    10   ar
    12    10    11    1
    13    10    12   ar
    14    12    13   ar
    15    13    14   ar
    16    14    15    1
    17     5     6    2
    18     6     7    1
    19     7    16    1
    20    16    17   ar
    21    17    18   ar
    22    18    19   ar
    23    19    20   ar
    24    20    21    1
    25    20    22   ar
    26     7     3    1
    27    22    16   ar
    28    14     8   ar
    29    21    23    1
@<TRIPOS>MOLECULE
*****
 27 29 0 0 0
SMALL
GASTEIGER

@<TRIPOS>ATOM
      1 C         142.7442  140.3122  166.6190 C.2     1  UNL1        0.2254
      2 O         143.9149  139.7569  165.8633 O.2     1  UNL1       -0.2749
      3 N         141.4268  140.5019  165.9273 N.am    1  UNL1       -0.2696
      4 C         141.1308  140.1834  164.4917 C.3     1  UNL1        0.1205
      5 C         139.6951  140.5281  164.2269 C.2     1  UNL1       -0.0024
      6 C         139.1039  141.0598  165.4988 C.2     1  UNL1       -0.0047
      7 C         140.1741  141.0436  166.5497 C.3     1  UNL1        0.1203
      8 C         138.9769  140.3691  162.9196 C.ar    1  UNL1        0.0271
      9 C         138.9025  141.5196  161.9600 C.ar    1  UNL1        0.0316
     10 C         138.1842  141.3605  160.6528 C.ar    1  UNL1        0.1403
     11 F         138.1098  142.5110  159.6931 F       1  UNL1       -0.2042
     12 C         137.5404  140.0511  160.3052 C.ar    1  UNL1        0.0319
     13 C         137.6148  138.9007  161.2649 C.ar    1  UNL1        0.0319
     14 C         138.3330  139.0597  162.5720 C.ar    1  UNL1        0.1400
     15 F         138.4074  137.9092  163.5318 F       1  UNL1       -0.2042
     16 C         140.0189  141.4906  167.9731 C.ar    1  UNL1        0.0029
     17 C         139.5756  140.5140  169.0218 C.ar    1  UNL1       -0.0021
     18 C         139.4204  140.9610  170.4452 C.ar    1  UNL1        0.0028
     19 C         139.7084  142.3845  170.8199 C.ar    1  UNL1        0.0366
     20 C         140.1517  143.3612  169.7712 C.ar    1  UNL1        0.1334
     21 O         140.4397  144.7848  170.1459 O.3     1  UNL1       -0.5055
     22 C         140.3069  142.9142  168.3479 C.ar    1  UNL1        0.0343
     23 H         140.3428  145.0640  171.0351 H       1  UNL1        0.2922
     24 C         142.5627  139.2669  168.4559 C.3     1  UNL1        0.0091
     25 C         142.8909  140.6777  168.0663 C.3     1  UNL1        0.0691
     26 C         143.2190  142.0886  167.6768 C.3     1  UNL1        0.0091
     27 C         143.0375  141.0432  169.5137 C.3     1  UNL1        0.0091
@<TRIPOS>BOND
     1    24    25    1
     2    25    26    1
     3    25    27    1
     4    25     1    1
     5     1     2    2
     6     1     3   am
     7     3     4    1
     8     4     5    1
     9     5     8    1
    10     8     9   ar
    11     9    10   ar
    12    10    11    1
    13    10    12   ar
    14    12    13   ar
    15    13    14   ar
    16    14    15    1
    17     5     6    2
    18     6     7    1
    19     7    16    1
    20    16    17   ar
    21    17    18   ar
    22    18    19   ar
    23    19    20   ar
    24    20    21    1
    25    20    22   ar
    26     7     3    1
    27    22    16   ar
    28    14     8   ar
    29    21    23    1
@<TRIPOS>MOLECULE
*****
 27 29 0 0 0
SMALL
GASTEIGER

@<TRIPOS>ATOM
      1 C         144.1031  142.6144  163.7764 C.2     1  UNL1        0.2254
      2 O         145.5277  142.1985  163.9946 O.2     1  UNL1       -0.2749
      3 N         143.1201  142.5453  164.9072 N.am    1  UNL1       -0.2696
      4 C         143.4139  142.0839  166.3039 C.3     1  UNL1        0.1205
      5 C         142.1460  142.1789  167.0999 C.2     1  UNL1       -0.0024
      6 C         141.0686  142.6991  166.1951 C.2     1  UNL1       -0.0047
      7 C         141.6706  142.9255  164.8400 C.3     1  UNL1        0.1203
      8 C         141.9840  141.8173  168.5466 C.ar    1  UNL1        0.0271
      9 C         142.8223  140.7272  169.1456 C.ar    1  UNL1        0.0316
     10 C         142.6603  140.3656  170.5923 C.ar    1  UNL1        0.1403
     11 F         143.4986  139.2755  171.1914 F       1  UNL1       -0.2042
     12 C         141.6600  141.0942  171.4400 C.ar    1  UNL1        0.0319
     13 C         140.8217  142.1843  170.8410 C.ar    1  UNL1        0.0319
     14 C         140.9837  142.5458  169.3943 C.ar    1  UNL1        0.1400
     15 F         140.1453  143.6360  168.7952 F       1  UNL1       -0.2042
     16 C         140.9497  143.4415  163.6300 C.ar    1  UNL1        0.0029
     17 C         140.3397  142.4800  162.6535 C.ar    1  UNL1       -0.0021
     18 C         139.6188  142.9960  161.4436 C.ar    1  UNL1        0.0028
     19 C         139.5079  144.4735  161.2101 C.ar    1  UNL1        0.0366
     20 C         140.1178  145.4351  162.1866 C.ar    1  UNL1        0.1334
     21 O         140.0068  146.9126  161.9530 O.3     1  UNL1       -0.5055
     22 C         140.8387  144.9190  163.3964 C.ar    1  UNL1        0.0343
     23 H         139.5565  147.2350  161.1972 H       1  UNL1        0.2922
     24 C         143.9920  144.5073  162.8254 C.3     1  UNL1        0.0091
     25 C         143.6616  143.0994  162.4273 C.3     1  UNL1        0.0691
     26 C         143.3312  141.6914  162.0293 C.3     1  UNL1        0.0091
     27 C         143.2200  143.5843  161.0783 C.3     1  UNL1        0.0091
@<TRIPOS>BOND
     1    24    25    1
     2    25    26    1
     3    25    27    1
     4    25     1    1
     5     1     2    2
     6     1     3   am
     7     3     4    1
     8     4     5    1
     9     5     8    1
    10     8     9   ar
    11     9    10   ar
    12    10    11    1
    13    10    12   ar
    14    12    13   ar
    15    13    14   ar
    16    14    15    1
    17     5     6    2
    18     6     7    1
    19     7    16    1
    20    16    17   ar
    21    17    18   ar
    22    18    19   ar
    23    19    20   ar
    24    20    21    1
    25    20    22   ar
    26     7     3    1
    27    22    16   ar
    28    14     8   ar
    29    21    23    1
@<TRIPOS>MOLECULE
*****
 27 29 0 0 0
SMALL
GASTEIGER

@<TRIPOS>ATOM
      1 C         144.4448  142.9683  164.7193 C.2     1  UNL1        0.2254
      2 O         145.1679  144.0540  165.4598 O.2     1  UNL1       -0.2749
      3 N         143.4590  142.0972  165.4400 N.am    1  UNL1       -0.2696
      4 C         143.0947  142.1925  166.8919 C.3     1  UNL1        0.1205
      5 C         142.0750  141.1320  167.1846 C.2     1  UNL1       -0.0024
      6 C         141.8092  140.3812  165.9135 C.2     1  UNL1       -0.0047
      7 C         142.6645  140.9777  164.8353 C.3     1  UNL1        0.1203
      8 C         141.4337  140.8685  168.5148 C.ar    1  UNL1        0.0271
      9 C         139.9729  140.5365  168.5906 C.ar    1  UNL1        0.0316
     10 C         139.3318  140.2731  169.9208 C.ar    1  UNL1        0.1403
     11 F         137.8709  139.9411  169.9966 F       1  UNL1       -0.2042
     12 C         140.1514  140.3417  171.1752 C.ar    1  UNL1        0.0319
     13 C         141.6122  140.6736  171.0994 C.ar    1  UNL1        0.0319
     14 C         142.2534  140.9371  169.7692 C.ar    1  UNL1        0.1400
     15 F         143.7143  141.2691  169.6934 F       1  UNL1       -0.2042
     16 C         142.7163  140.5329  163.4037 C.ar    1  UNL1        0.0029
     17 C         141.7865  141.1403  162.3955 C.ar    1  UNL1       -0.0021
     18 C         141.8383  140.6954  160.9639 C.ar    1  UNL1        0.0028
     19 C         142.8199  139.6432  160.5406 C.ar    1  UNL1        0.0366
     20 C         143.7497  139.0358  161.5488 C.ar    1  UNL1        0.1334
     21 O         144.7313  137.9835  161.1254 O.3     1  UNL1       -0.5055
     22 C         143.6979  139.4806  162.9803 C.ar    1  UNL1        0.0343
     23 H         144.7637  137.7057  160.2311 H       1  UNL1        0.2922
     24 C         145.7687  141.7492  163.5965 C.3     1  UNL1        0.0091
     25 C         144.7075  142.7537  163.2581 C.3     1  UNL1        0.0691
     26 C         143.6461  143.7582  162.9198 C.3     1  UNL1        0.0091
     27 C         144.9701  142.5391  161.7970 C.3     1  UNL1        0.0091
@<TRIPOS>BOND
     1    24    25    1
     2    25    26    1
     3    25    27    1
     4    25     1    1
     5     1     2    2
     6     1     3   am
     7     3     4    1
     8     4     5    1
     9     5     8    1
    10     8     9   ar
    11     9    10   ar
    12    10    11    1
    13    10    12   ar
    14    12    13   ar
    15    13    14   ar
    16    14    15    1
    17     5     6    2
    18     6     7    1
    19     7    16    1
    20    16    17   ar
    21    17    18   ar
    22    18    19   ar
    23    19    20   ar
    24    20    21    1
    25    20    22   ar
    26     7     3    1
    27    22    16   ar
    28    14     8   ar
    29    21    23    1
@<TRIPOS>MOLECULE
*****
 27 29 0 0 0
SMALL
GASTEIGER

@<TRIPOS>ATOM
      1 C         138.7960  143.1184  163.8371 C.2     1  UNL1        0.2254
      2 O         138.2463  144.4701  164.1843 O.2     1  UNL1       -0.2749
      3 N         139.6414  142.3753  164.8285 N.am    1  UNL1       -0.2696
      4 C         140.0199  142.8541  166.1987 C.3     1  UNL1        0.1205
      5 C         140.8693  141.7976  166.8408 C.2     1  UNL1       -0.0024
      6 C         141.0158  140.6658  165.8675 C.2     1  UNL1       -0.0047
      7 C         140.2570  141.0227  164.6238 C.3     1  UNL1        0.1203
      8 C         141.4672  141.8618  168.2150 C.ar    1  UNL1        0.0271
      9 C         142.9054  142.2503  168.3898 C.ar    1  UNL1        0.0316
     10 C         143.5032  142.3144  169.7640 C.ar    1  UNL1        0.1403
     11 F         144.9415  142.7029  169.9389 F       1  UNL1       -0.2042
     12 C         142.6629  141.9900  170.9634 C.ar    1  UNL1        0.0319
     13 C         141.2247  141.6015  170.7886 C.ar    1  UNL1        0.0319
     14 C         140.6268  141.5374  169.4144 C.ar    1  UNL1        0.1400
     15 F         139.1886  141.1489  169.2396 F       1  UNL1       -0.2042
     16 C         140.1351  140.1758  163.3917 C.ar    1  UNL1        0.0029
     17 C         141.1471  140.3020  162.2918 C.ar    1  UNL1       -0.0021
     18 C         141.0252  139.4551  161.0597 C.ar    1  UNL1        0.0028
     19 C         139.8912  138.4822  160.9277 C.ar    1  UNL1        0.0366
     20 C         138.8791  138.3560  162.0276 C.ar    1  UNL1        0.1334
     21 O         137.7452  137.3831  161.8955 O.3     1  UNL1       -0.5055
     22 C         139.0011  139.2029  163.2596 C.ar    1  UNL1        0.0343
     23 H         137.6690  136.8541  161.1259 H       1  UNL1        0.2922
     24 C         137.2879  141.8377  163.0718 C.3     1  UNL1        0.0091
     25 C         138.5001  142.5097  162.4984 C.3     1  UNL1        0.0691
     26 C         139.7124  143.1816  161.9249 C.3     1  UNL1        0.0091
     27 C         138.2042  141.9010  161.1597 C.3     1  UNL1        0.0091
@<TRIPOS>BOND
     1    24    25    1
     2    25    26    1
     3    25    27    1
     4    25     1    1
     5     1     2    2
     6     1     3   am
     7     3     4    1
     8     4     5    1
     9     5     8    1
    10     8     9   ar
    11     9    10   ar
    12    10    11    1
    13    10    12   ar
    14    12    13   ar
    15    13    14   ar
    16    14    15    1
    17     5     6    2
    18     6     7    1
    19     7    16    1
    20    16    17   ar
    21    17    18   ar
    22    18    19   ar
    23    19    20   ar
    24    20    21    1
    25    20    22   ar
    26     7     3    1
    27    22    16   ar
    28    14     8   ar
    29    21    23    1
@<TRIPOS>MOLECULE
*****
 27 29 0 0 0
SMALL
GASTEIGER

@<TRIPOS>ATOM
      1 C         139.2092  143.4350  163.0925 C.2     1  UNL1        0.2254
      2 O         138.8064  144.8698  163.2631 O.2     1  UNL1       -0.2749
      3 N         139.8880  142.7080  164.2153 N.am    1  UNL1       -0.2696
      4 C         140.2278  143.2815  165.5591 C.3     1  UNL1        0.1205
      5 C         140.8960  142.2078  166.3658 C.2     1  UNL1       -0.0024
      6 C         140.9693  140.9708  165.5206 C.2     1  UNL1       -0.0047
      7 C         140.3463  141.2799  164.1916 C.3     1  UNL1        0.1203
      8 C         141.4021  142.3469  167.7710 C.ar    1  UNL1        0.0271
      9 C         140.4324  142.4766  168.9080 C.ar    1  UNL1        0.0316
     10 C         140.9386  142.6157  170.3132 C.ar    1  UNL1        0.1403
     11 F         139.9689  142.7455  171.4503 F       1  UNL1       -0.2042
     12 C         142.4144  142.6249  170.5813 C.ar    1  UNL1        0.0319
     13 C         143.3841  142.4951  169.4443 C.ar    1  UNL1        0.0319
     14 C         142.8779  142.3561  168.0392 C.ar    1  UNL1        0.1400
     15 F         143.8476  142.2263  166.9021 F       1  UNL1       -0.2042
     16 C         140.2062  140.3280  163.0408 C.ar    1  UNL1        0.0029
     17 C         141.2651  140.2731  161.9797 C.ar    1  UNL1       -0.0021
     18 C         141.1250  139.3212  160.8289 C.ar    1  UNL1        0.0028
     19 C         139.9261  138.4244  160.7392 C.ar    1  UNL1        0.0366
     20 C         138.8671  138.4793  161.8003 C.ar    1  UNL1        0.1334
     21 O         137.6682  137.5824  161.7105 O.3     1  UNL1       -0.5055
     22 C         139.0073  139.4311  162.9510 C.ar    1  UNL1        0.0343
     23 H         137.5807  136.9878  160.9916 H       1  UNL1        0.2922
     24 C         137.6221  142.2433  162.3437 C.3     1  UNL1        0.0091
     25 C         138.9333  142.7271  161.7991 C.3     1  UNL1        0.0691
     26 C         140.2445  143.2110  161.2546 C.3     1  UNL1        0.0091
     27 C         138.6573  142.0193  160.5057 C.3     1  UNL1        0.0091
@<TRIPOS>BOND
     1    24    25    1
     2    25    26    1
     3    25    27    1
     4    25     1    1
     5     1     2    2
     6     1     3   am
     7     3     4    1
     8     4     5    1
     9     5     8    1
    10     8     9   ar
    11     9    10   ar
    12    10    11    1
    13    10    12   ar
    14    12    13   ar
    15    13    14   ar
    16    14    15    1
    17     5     6    2
    18     6     7    1
    19     7    16    1
    20    16    17   ar
    21    17    18   ar
    22    18    19   ar
    23    19    20   ar
    24    20    21    1
    25    20    22   ar
    26     7     3    1
    27    22    16   ar
    28    14     8   ar
    29    21    23    1
@<TRIPOS>MOLECULE
*****
 27 29 0 0 0
SMALL
GASTEIGER

@<TRIPOS>ATOM
      1 C         139.1649  139.9769  163.2647 C.2     1  UNL1        0.2254
      2 O         137.6847  140.0967  163.4760 O.2     1  UNL1       -0.2749
      3 N         140.1113  140.3195  164.3768 N.am    1  UNL1       -0.2696
      4 C         139.7270  140.7928  165.7472 C.3     1  UNL1        0.1205
      5 C         140.9865  141.0148  166.5311 C.2     1  UNL1       -0.0024
      6 C         142.1492  140.6786  165.6451 C.2     1  UNL1       -0.0047
      7 C         141.6084  140.2489  164.3137 C.3     1  UNL1        0.1203
      8 C         141.0688  141.4895  167.9517 C.ar    1  UNL1        0.0271
      9 C         140.6108  142.8728  168.3079 C.ar    1  UNL1        0.0316
     10 C         140.6931  143.3475  169.7283 C.ar    1  UNL1        0.1403
     11 F         140.2352  144.7308  170.0846 F       1  UNL1       -0.2042
     12 C         141.2333  142.4390  170.7927 C.ar    1  UNL1        0.0319
     13 C         141.6912  141.0557  170.4365 C.ar    1  UNL1        0.0319
     14 C         141.6090  140.5810  169.0160 C.ar    1  UNL1        0.1400
     15 F         142.0669  139.1977  168.6598 F       1  UNL1       -0.2042
     16 C         142.4218  139.8233  163.1273 C.ar    1  UNL1        0.0029
     17 C         142.7746  138.3775  162.9396 C.ar    1  UNL1       -0.0021
     18 C         143.5880  137.9520  161.7533 C.ar    1  UNL1        0.0028
     19 C         144.0484  138.9721  160.7548 C.ar    1  UNL1        0.0366
     20 C         143.6956  140.4180  160.9425 C.ar    1  UNL1        0.1334
     21 O         144.1561  141.4382  159.9439 O.3     1  UNL1       -0.5055
     22 C         142.8823  140.8435  162.1288 C.ar    1  UNL1        0.0343
     23 H         144.6642  141.1723  159.2029 H       1  UNL1        0.2922
     24 C         139.6425  138.0926  162.4155 C.3     1  UNL1        0.0091
     25 C         139.6986  139.5144  161.9413 C.3     1  UNL1        0.0691
     26 C         139.7547  140.9364  161.4670 C.3     1  UNL1        0.0091
     27 C         140.2323  139.0520  160.6179 C.3     1  UNL1        0.0091
@<TRIPOS>BOND
     1    24    25    1
     2    25    26    1
     3    25    27    1
     4    25     1    1
     5     1     2    2
     6     1     3   am
     7     3     4    1
     8     4     5    1
     9     5     8    1
    10     8     9   ar
    11     9    10   ar
    12    10    11    1
    13    10    12   ar
    14    12    13   ar
    15    13    14   ar
    16    14    15    1
    17     5     6    2
    18     6     7    1
    19     7    16    1
    20    16    17   ar
    21    17    18   ar
    22    18    19   ar
    23    19    20   ar
    24    20    21    1
    25    20    22   ar
    26     7     3    1
    27    22    16   ar
    28    14     8   ar
    29    21    23    1
@<TRIPOS>MOLECULE
*****
 27 29 0 0 0
SMALL
GASTEIGER

@<TRIPOS>ATOM
      1 C         138.8322  141.2835  161.9389 C.2     1  UNL1        0.2254
      2 O         137.3387  141.1592  162.0019 O.2     1  UNL1       -0.2749
      3 N         139.6279  141.4137  163.2038 N.am    1  UNL1       -0.2696
      4 C         139.0721  141.4350  164.5968 C.3     1  UNL1        0.1205
      5 C         140.2199  141.5800  165.5517 C.2     1  UNL1       -0.0024
      6 C         141.4850  141.6483  164.7487 C.2     1  UNL1       -0.0047
      7 C         141.1192  141.5456  163.2977 C.3     1  UNL1        0.1203
      8 C         140.1199  141.6453  167.0470 C.ar    1  UNL1        0.0271
      9 C         140.5205  142.8960  167.7715 C.ar    1  UNL1        0.0316
     10 C         140.4206  142.9612  169.2668 C.ar    1  UNL1        0.1403
     11 F         140.8212  144.2120  169.9914 F       1  UNL1       -0.2042
     12 C         139.9200  141.7756  170.0374 C.ar    1  UNL1        0.0319
     13 C         139.5194  140.5249  169.3128 C.ar    1  UNL1        0.0319
     14 C         139.6194  140.4597  167.8176 C.ar    1  UNL1        0.1400
     15 F         139.2188  139.2089  167.0929 F       1  UNL1       -0.2042
     16 C         142.0766  141.5703  162.1432 C.ar    1  UNL1        0.0029
     17 C         142.4777  142.8788  161.5293 C.ar    1  UNL1       -0.0021
     18 C         143.4351  142.9035  160.3748 C.ar    1  UNL1        0.0028
     19 C         143.9913  141.6197  159.8342 C.ar    1  UNL1        0.0366
     20 C         143.5902  140.3111  160.4481 C.ar    1  UNL1        0.1334
     21 O         144.1465  139.0272  159.9074 O.3     1  UNL1       -0.5055
     22 C         142.6329  140.2864  161.6025 C.ar    1  UNL1        0.0343
     23 H         144.7445  139.0427  159.1863 H       1  UNL1        0.2922
     24 C         139.4231  142.7723  160.5481 C.3     1  UNL1        0.0091
     25 C         139.5301  141.2775  160.6111 C.3     1  UNL1        0.0691
     26 C         139.6371  139.7826  160.6741 C.3     1  UNL1        0.0091
     27 C         140.2279  141.2715  159.2833 C.3     1  UNL1        0.0091
@<TRIPOS>BOND
     1    24    25    1
     2    25    26    1
     3    25    27    1
     4    25     1    1
     5     1     2    2
     6     1     3   am
     7     3     4    1
     8     4     5    1
     9     5     8    1
    10     8     9   ar
    11     9    10   ar
    12    10    11    1
    13    10    12   ar
    14    12    13   ar
    15    13    14   ar
    16    14    15    1
    17     5     6    2
    18     6     7    1
    19     7    16    1
    20    16    17   ar
    21    17    18   ar
    22    18    19   ar
    23    19    20   ar
    24    20    21    1
    25    20    22   ar
    26     7     3    1
    27    22    16   ar
    28    14     8   ar
    29    21    23    1
