@<TRIPOS>MOLECULE
*****
 23 25 0 0 0
SMALL
GASTEIGER

@<TRIPOS>ATOM
      1 C         140.7587  140.1775  166.5231 C.3     1  UNL1        0.1418
      2 O         142.2171  140.2176  166.8718 O.3     1  UNL1       -0.3772
      3 H         142.7276  139.7702  166.1790 H       1  UNL1        0.2112
      4 C         141.0805  139.4294  165.2634 C.ar    1  UNL1        0.0261
      5 C         140.6967  137.9855  165.1298 C.ar    1  UNL1        0.0015
      6 C         141.0184  137.2375  163.8701 C.ar    1  UNL1        0.0204
      7 C         141.7240  137.9332  162.7441 C.ar    1  UNL1        0.0989
      8 N         142.1079  139.3771  162.8777 N.ar    1  UNL1       -0.2426
      9 C         141.7861  140.1252  164.1374 C.ar    1  UNL1        0.0972
     10 C         140.4370  140.9256  167.7828 C.ar    1  UNL1        0.0261
     11 C         140.6882  142.4022  167.8632 C.ar    1  UNL1        0.0015
     12 C         140.3664  143.1503  169.1229 C.ar    1  UNL1        0.0204
     13 C         139.7934  142.4217  170.3022 C.ar    1  UNL1        0.0989
     14 N         139.5422  140.9451  170.2219 N.ar    1  UNL1       -0.2426
     15 C         139.8640  140.1971  168.9622 C.ar    1  UNL1        0.0972
     16 C         138.3765  139.2186  166.9176 C.3     1  UNL1        0.0205
     17 C         139.3004  140.1374  166.1745 C.3     1  UNL1        0.0904
     18 N         138.7659  141.0161  165.0825 N.3     1  UNL1       -0.2671
     19 C         139.0206  142.4939  165.1168 C.3     1  UNL1        0.1047
     20 C         138.4861  143.3725  164.0249 C.3     1  UNL1        0.1595
     21 O         137.6969  142.7734  162.8988 O.3     1  UNL1       -0.3508
     22 C         137.4422  141.2956  162.8645 C.3     1  UNL1        0.1595
     23 C         137.9767  140.4170  163.9564 C.3     1  UNL1        0.1047
@<TRIPOS>BOND
     1    16    17    1
     2    17    18    1
     3    18    19    1
     4    19    20    1
     5    20    21    1
     6    21    22    1
     7    22    23    1
     8    17     1    1
     9     1     2    1
    10     1     4    1
    11     4     5   ar
    12     5     6   ar
    13     6     7   ar
    14     7     8   ar
    15     8     9   ar
    16     1    10    1
    17    10    11   ar
    18    11    12   ar
    19    12    13   ar
    20    13    14   ar
    21    14    15   ar
    22    23    18    1
    23     9     4   ar
    24    15    10   ar
    25     2     3    1
@<TRIPOS>MOLECULE
*****
 23 25 0 0 0
SMALL
GASTEIGER

@<TRIPOS>ATOM
      1 C         140.7529  140.1721  166.5213 C.3     1  UNL1        0.1418
      2 O         142.2109  140.2093  166.8719 O.3     1  UNL1       -0.3772
      3 H         142.3287  140.6726  167.7160 H       1  UNL1        0.2112
      4 C         140.4307  140.9187  167.7817 C.ar    1  UNL1        0.0261
      5 C         140.6811  142.3954  167.8636 C.ar    1  UNL1        0.0015
      6 C         140.3589  143.1420  169.1240 C.ar    1  UNL1        0.0204
      7 C         139.7863  142.4119  170.3026 C.ar    1  UNL1        0.0989
      8 N         139.5359  140.9353  170.2208 N.ar    1  UNL1       -0.2426
      9 C         139.8581  140.1887  168.9603 C.ar    1  UNL1        0.0972
     10 C         141.0752  139.4254  165.2608 C.ar    1  UNL1        0.0261
     11 C         140.6900  137.9822  165.1248 C.ar    1  UNL1        0.0015
     12 C         141.0123  137.2355  163.8643 C.ar    1  UNL1        0.0204
     13 C         141.7196  137.9322  162.7399 C.ar    1  UNL1        0.0989
     14 N         142.1047  139.3755  162.8760 N.ar    1  UNL1       -0.2426
     15 C         141.7825  140.1221  164.1365 C.ar    1  UNL1        0.0972
     16 C         138.3682  139.2183  166.9129 C.3     1  UNL1        0.0205
     17 C         139.2950  140.1348  166.1706 C.3     1  UNL1        0.0904
     18 N         138.7638  141.0142  165.0776 N.3     1  UNL1       -0.2671
     19 C         139.0227  142.4913  165.1109 C.3     1  UNL1        0.1047
     20 C         138.4915  143.3705  164.0179 C.3     1  UNL1        0.1595
     21 O         137.7014  142.7727  162.8917 O.3     1  UNL1       -0.3508
     22 C         137.4425  141.2957  162.8584 C.3     1  UNL1        0.1595
     23 C         137.9737  140.4164  163.9514 C.3     1  UNL1        0.1047
@<TRIPOS>BOND
     1    16    17    1
     2    17    18    1
     3    18    19    1
     4    19    20    1
     5    20    21    1
     6    21    22    1
     7    22    23    1
     8    17     1    1
     9     1     2    1
    10     1     4    1
    11     4     5   ar
    12     5     6   ar
    13     6     7   ar
    14     7     8   ar
    15     8     9   ar
    16     1    10    1
    17    10    11   ar
    18    11    12   ar
    19    12    13   ar
    20    13    14   ar
    21    14    15   ar
    22    23    18    1
    23     9     4   ar
    24    15    10   ar
    25     2     3    1
@<TRIPOS>MOLECULE
*****
 23 25 0 0 0
SMALL
GASTEIGER

@<TRIPOS>ATOM
      1 C         140.2607  140.9924  166.1406 C.3     1  UNL1        0.1418
      2 O         140.9188  142.3066  166.4401 O.3     1  UNL1       -0.3772
      3 H         140.6806  142.9510  165.7553 H       1  UNL1        0.2112
      4 C         139.6373  141.5847  164.9115 C.ar    1  UNL1        0.0261
      5 C         138.1518  141.7815  164.8444 C.ar    1  UNL1        0.0015
      6 C         137.5285  142.3738  163.6154 C.ar    1  UNL1        0.0204
      7 C         138.3906  142.7692  162.4533 C.ar    1  UNL1        0.0989
      8 N         139.8761  142.5724  162.5204 N.ar    1  UNL1       -0.2426
      9 C         140.4994  141.9801  163.7495 C.ar    1  UNL1        0.0972
     10 C         140.8840  140.4001  167.3697 C.ar    1  UNL1        0.0261
     11 C         140.1614  140.4645  168.6825 C.ar    1  UNL1        0.0015
     12 C         140.7847  139.8722  169.9116 C.ar    1  UNL1        0.0204
     13 C         142.1307  139.2156  169.8278 C.ar    1  UNL1        0.0989
     14 N         142.8534  139.1512  168.5150 N.ar    1  UNL1       -0.2426
     15 C         142.2300  139.7435  167.2859 C.ar    1  UNL1        0.0972
     16 C         138.5434  139.1434  166.7588 C.3     1  UNL1        0.0205
     17 C         139.6025  139.6782  165.8411 C.3     1  UNL1        0.0904
     18 N         140.0035  138.8988  164.6238 N.3     1  UNL1       -0.2671
     19 C         141.4402  138.5221  164.4140 C.3     1  UNL1        0.1047
     20 C         141.8411  137.7428  163.1967 C.3     1  UNL1        0.1595
     21 O         140.8053  137.3400  162.1892 O.3     1  UNL1       -0.3508
     22 C         139.3687  137.7167  162.3990 C.3     1  UNL1        0.1595
     23 C         138.9677  138.4960  163.6163 C.3     1  UNL1        0.1047
@<TRIPOS>BOND
     1    16    17    1
     2    17    18    1
     3    18    19    1
     4    19    20    1
     5    20    21    1
     6    21    22    1
     7    22    23    1
     8    17     1    1
     9     1     2    1
    10     1     4    1
    11     4     5   ar
    12     5     6   ar
    13     6     7   ar
    14     7     8   ar
    15     8     9   ar
    16     1    10    1
    17    10    11   ar
    18    11    12   ar
    19    12    13   ar
    20    13    14   ar
    21    14    15   ar
    22    23    18    1
    23     9     4   ar
    24    15    10   ar
    25     2     3    1
@<TRIPOS>MOLECULE
*****
 23 25 0 0 0
SMALL
GASTEIGER

@<TRIPOS>ATOM
      1 C         140.3812  140.9976  166.2015 C.3     1  UNL1        0.1418
      2 O         141.0779  142.2913  166.5031 O.3     1  UNL1       -0.3772
      3 H         141.6059  142.1936  167.3109 H       1  UNL1        0.2112
      4 C         141.0011  140.3799  167.4198 C.ar    1  UNL1        0.0261
      5 C         140.3083  140.4799  168.7464 C.ar    1  UNL1        0.0015
      6 C         140.9281  139.8621  169.9647 C.ar    1  UNL1        0.0204
      7 C         142.2407  139.1443  169.8564 C.ar    1  UNL1        0.0989
      8 N         142.9335  139.0443  168.5297 N.ar    1  UNL1       -0.2426
      9 C         142.3137  139.6620  167.3115 C.ar    1  UNL1        0.0972
     10 C         139.7614  141.6154  164.9833 C.ar    1  UNL1        0.0261
     11 C         138.2770  141.8208  164.9193 C.ar    1  UNL1        0.0015
     12 C         137.6572  142.4386  163.7010 C.ar    1  UNL1        0.0204
     13 C         138.5218  142.8509  162.5467 C.ar    1  UNL1        0.0989
     14 N         140.0062  142.6454  162.6107 N.ar    1  UNL1       -0.2426
     15 C         140.6261  142.0277  163.8290 C.ar    1  UNL1        0.0972
     16 C         138.6178  139.1936  166.8227 C.3     1  UNL1        0.0205
     17 C         139.6846  139.7039  165.8999 C.3     1  UNL1        0.0904
     18 N         140.0548  138.9204  164.6755 N.3     1  UNL1       -0.2671
     19 C         141.4863  138.5459  164.4291 C.3     1  UNL1        0.1047
     20 C         141.8564  137.7625  163.2047 C.3     1  UNL1        0.1595
     21 O         140.7951  137.3536  162.2267 O.3     1  UNL1       -0.3508
     22 C         139.3637  137.7281  162.4731 C.3     1  UNL1        0.1595
     23 C         138.9936  138.5115  163.6975 C.3     1  UNL1        0.1047
@<TRIPOS>BOND
     1    16    17    1
     2    17    18    1
     3    18    19    1
     4    19    20    1
     5    20    21    1
     6    21    22    1
     7    22    23    1
     8    17     1    1
     9     1     2    1
    10     1     4    1
    11     4     5   ar
    12     5     6   ar
    13     6     7   ar
    14     7     8   ar
    15     8     9   ar
    16     1    10    1
    17    10    11   ar
    18    11    12   ar
    19    12    13   ar
    20    13    14   ar
    21    14    15   ar
    22    23    18    1
    23     9     4   ar
    24    15    10   ar
    25     2     3    1
@<TRIPOS>MOLECULE
*****
 23 25 0 0 0
SMALL
GASTEIGER

@<TRIPOS>ATOM
      1 C         139.7578  140.0558  167.2541 C.3     1  UNL1        0.1418
      2 O         138.7204  139.1539  167.8545 O.3     1  UNL1       -0.3772
      3 H         138.1788  138.7687  167.1479 H       1  UNL1        0.2112
      4 C         139.2363  139.7429  165.8829 C.ar    1  UNL1        0.0261
      5 C         139.4540  138.3824  165.2901 C.ar    1  UNL1        0.0015
      6 C         138.9325  138.0695  163.9189 C.ar    1  UNL1        0.0204
      7 C         138.1932  139.1172  163.1406 C.ar    1  UNL1        0.0989
      8 N         137.9755  140.4777  163.7334 N.ar    1  UNL1       -0.2426
      9 C         138.4970  140.7906  165.1046 C.ar    1  UNL1        0.0972
     10 C         140.2793  140.3687  168.6253 C.ar    1  UNL1        0.0261
     11 C         141.6015  139.8163  169.0689 C.ar    1  UNL1        0.0015
     12 C         142.1230  140.1292  170.4401 C.ar    1  UNL1        0.0204
     13 C         141.3224  140.9944  171.3676 C.ar    1  UNL1        0.0989
     14 N         140.0003  141.5468  170.9240 N.ar    1  UNL1       -0.2426
     15 C         139.4787  141.2339  169.5528 C.ar    1  UNL1        0.0972
     16 C         140.7419  142.4351  166.9072 C.3     1  UNL1        0.0205
     17 C         140.7952  140.9577  166.6537 C.3     1  UNL1        0.0904
     18 N         141.8859  140.3820  165.7998 N.3     1  UNL1       -0.2671
     19 C         142.7355  139.2619  166.3226 C.3     1  UNL1        0.1047
     20 C         143.8262  138.6863  165.4687 C.3     1  UNL1        0.1595
     21 O         144.0672  139.2309  164.0920 O.3     1  UNL1       -0.3508
     22 C         143.2176  140.3511  163.5692 C.3     1  UNL1        0.1595
     23 C         142.1269  140.9266  164.4231 C.3     1  UNL1        0.1047
@<TRIPOS>BOND
     1    16    17    1
     2    17    18    1
     3    18    19    1
     4    19    20    1
     5    20    21    1
     6    21    22    1
     7    22    23    1
     8    17     1    1
     9     1     2    1
    10     1     4    1
    11     4     5   ar
    12     5     6   ar
    13     6     7   ar
    14     7     8   ar
    15     8     9   ar
    16     1    10    1
    17    10    11   ar
    18    11    12   ar
    19    12    13   ar
    20    13    14   ar
    21    14    15   ar
    22    23    18    1
    23     9     4   ar
    24    15    10   ar
    25     2     3    1
@<TRIPOS>MOLECULE
*****
 23 25 0 0 0
SMALL
GASTEIGER

@<TRIPOS>ATOM
      1 C         139.7226  140.1034  167.2276 C.3     1  UNL1        0.1418
      2 O         138.6919  139.1850  167.8144 O.3     1  UNL1       -0.3772
      3 H         138.8012  139.1496  168.7776 H       1  UNL1        0.2112
      4 C         140.2663  140.3700  168.5999 C.ar    1  UNL1        0.0261
      5 C         141.5920  139.7975  169.0057 C.ar    1  UNL1        0.0015
      6 C         142.1357  140.0642  170.3780 C.ar    1  UNL1        0.0204
      7 C         141.3537  140.9033  171.3446 C.ar    1  UNL1        0.0989
      8 N         140.0280  141.4758  170.9388 N.ar    1  UNL1       -0.2426
      9 C         139.4843  141.2092  169.5665 C.ar    1  UNL1        0.0972
     10 C         139.1788  139.8368  165.8553 C.ar    1  UNL1        0.0261
     11 C         138.4627  140.9226  165.1082 C.ar    1  UNL1        0.0015
     12 C         137.9190  140.6560  163.7359 C.ar    1  UNL1        0.0204
     13 C         138.0914  139.3035  163.1106 C.ar    1  UNL1        0.0989
     14 N         138.8075  138.2177  163.8577 N.ar    1  UNL1       -0.2426
     15 C         139.3512  138.4843  165.2300 C.ar    1  UNL1        0.0972
     16 C         140.7122  142.4893  166.9484 C.3     1  UNL1        0.0205
     17 C         140.7532  141.0218  166.6408 C.3     1  UNL1        0.0904
     18 N         141.8250  140.4725  165.7464 N.3     1  UNL1       -0.2671
     19 C         142.0467  141.0688  164.3881 C.3     1  UNL1        0.1047
     20 C         143.1184  140.5196  163.4938 C.3     1  UNL1        0.1595
     21 O         143.9683  139.3741  163.9579 O.3     1  UNL1       -0.3508
     22 C         143.7466  138.7778  165.3162 C.3     1  UNL1        0.1595
     23 C         142.6749  139.3270  166.2105 C.3     1  UNL1        0.1047
@<TRIPOS>BOND
     1    16    17    1
     2    17    18    1
     3    18    19    1
     4    19    20    1
     5    20    21    1
     6    21    22    1
     7    22    23    1
     8    17     1    1
     9     1     2    1
    10     1     4    1
    11     4     5   ar
    12     5     6   ar
    13     6     7   ar
    14     7     8   ar
    15     8     9   ar
    16     1    10    1
    17    10    11   ar
    18    11    12   ar
    19    12    13   ar
    20    13    14   ar
    21    14    15   ar
    22    23    18    1
    23     9     4   ar
    24    15    10   ar
    25     2     3    1
@<TRIPOS>MOLECULE
*****
 23 25 0 0 0
SMALL
GASTEIGER

@<TRIPOS>ATOM
      1 C         140.4369  140.2634  166.4263 C.3     1  UNL1        0.1418
      2 O         138.9582  140.3142  166.1797 O.3     1  UNL1       -0.3772
      3 H         138.7550  139.8719  165.3407 H       1  UNL1        0.2112
      4 C         140.6263  139.5199  165.1374 C.ar    1  UNL1        0.0261
      5 C         141.0018  138.0678  165.1573 C.ar    1  UNL1        0.0015
      6 C         141.1912  137.3244  163.8683 C.ar    1  UNL1        0.0204
      7 C         141.0052  138.0330  162.5595 C.ar    1  UNL1        0.0989
      8 N         140.6298  139.4851  162.5395 N.ar    1  UNL1       -0.2426
      9 C         140.4403  140.2285  163.8285 C.ar    1  UNL1        0.0972
     10 C         140.2475  141.0068  167.7153 C.ar    1  UNL1        0.0261
     11 C         140.6610  142.4449  167.8194 C.ar    1  UNL1        0.0015
     12 C         140.4716  143.1884  169.1083 C.ar    1  UNL1        0.0204
     13 C         139.8686  142.4937  170.2931 C.ar    1  UNL1        0.0989
     14 N         139.4551  141.0557  170.1890 N.ar    1  UNL1       -0.2426
     15 C         139.6446  140.3122  168.9001 C.ar    1  UNL1        0.0972
     16 C         142.4540  139.4555  167.8506 C.3     1  UNL1        0.0205
     17 C         141.9156  140.2125  166.6729 C.3     1  UNL1        0.0904
     18 N         142.8560  140.9188  165.7418 N.3     1  UNL1       -0.2671
     19 C         143.9349  140.1491  165.0393 C.3     1  UNL1        0.1047
     20 C         144.8752  140.8554  164.1082 C.3     1  UNL1        0.1595
     21 O         144.7366  142.3314  163.8796 O.3     1  UNL1       -0.3508
     22 C         143.6577  143.1011  164.5821 C.3     1  UNL1        0.1595
     23 C         142.7174  142.3948  165.5132 C.3     1  UNL1        0.1047
@<TRIPOS>BOND
     1    16    17    1
     2    17    18    1
     3    18    19    1
     4    19    20    1
     5    20    21    1
     6    21    22    1
     7    22    23    1
     8    17     1    1
     9     1     2    1
    10     1     4    1
    11     4     5   ar
    12     5     6   ar
    13     6     7   ar
    14     7     8   ar
    15     8     9   ar
    16     1    10    1
    17    10    11   ar
    18    11    12   ar
    19    12    13   ar
    20    13    14   ar
    21    14    15   ar
    22    23    18    1
    23     9     4   ar
    24    15    10   ar
    25     2     3    1
@<TRIPOS>MOLECULE
*****
 23 25 0 0 0
SMALL
GASTEIGER

@<TRIPOS>ATOM
      1 C         141.5638  139.5805  166.4545 C.3     1  UNL1        0.1418
      2 O         140.2128  139.7530  167.0829 O.3     1  UNL1       -0.3772
      3 H         140.3114  140.1744  167.9510 H       1  UNL1        0.2112
      4 C         142.2032  140.2107  167.6562 C.ar    1  UNL1        0.0261
      5 C         142.5970  141.6577  167.6239 C.ar    1  UNL1        0.0015
      6 C         143.2364  142.2879  168.8256 C.ar    1  UNL1        0.0204
      7 C         143.4821  141.4712  170.0595 C.ar    1  UNL1        0.0989
      8 N         143.0883  140.0242  170.0917 N.ar    1  UNL1       -0.2426
      9 C         142.4489  139.3939  168.8900 C.ar    1  UNL1        0.0972
     10 C         140.9244  138.9502  165.2529 C.ar    1  UNL1        0.0261
     11 C         141.4634  137.6619  164.7056 C.ar    1  UNL1        0.0015
     12 C         140.8240  137.0316  163.5039 C.ar    1  UNL1        0.0204
     13 C         139.6456  137.6897  162.8496 C.ar    1  UNL1        0.0989
     14 N         139.1066  138.9781  163.3969 N.ar    1  UNL1       -0.2426
     15 C         139.7460  139.6083  164.5985 C.ar    1  UNL1        0.0972
     16 C         143.8517  138.3548  166.3391 C.3     1  UNL1        0.0205
     17 C         142.9149  139.4079  165.8261 C.3     1  UNL1        0.0904
     18 N         143.3291  140.2886  164.6846 N.3     1  UNL1       -0.2671
     19 C         144.4328  139.8559  163.7657 C.3     1  UNL1        0.1047
     20 C         144.8469  140.7366  162.6243 C.3     1  UNL1        0.1595
     21 O         144.1574  142.0500  162.4018 O.3     1  UNL1       -0.3508
     22 C         143.0537  142.4827  163.3208 C.3     1  UNL1        0.1595
     23 C         142.6395  141.6021  164.4622 C.3     1  UNL1        0.1047
@<TRIPOS>BOND
     1    16    17    1
     2    17    18    1
     3    18    19    1
     4    19    20    1
     5    20    21    1
     6    21    22    1
     7    22    23    1
     8    17     1    1
     9     1     2    1
    10     1     4    1
    11     4     5   ar
    12     5     6   ar
    13     6     7   ar
    14     7     8   ar
    15     8     9   ar
    16     1    10    1
    17    10    11   ar
    18    11    12   ar
    19    12    13   ar
    20    13    14   ar
    21    14    15   ar
    22    23    18    1
    23     9     4   ar
    24    15    10   ar
    25     2     3    1
@<TRIPOS>MOLECULE
*****
 23 25 0 0 0
SMALL
GASTEIGER

@<TRIPOS>ATOM
      1 C         141.6311  139.8044  166.2054 C.3     1  UNL1        0.1418
      2 O         142.9433  139.1642  165.8613 O.3     1  UNL1       -0.3772
      3 H         142.8586  138.6839  165.0228 H       1  UNL1        0.2112
      4 C         141.0284  139.2428  164.9518 C.ar    1  UNL1        0.0261
      5 C         139.9958  138.1582  165.0367 C.ar    1  UNL1        0.0015
      6 C         139.3931  137.5967  163.7831 C.ar    1  UNL1        0.0204
      7 C         139.8230  138.1198  162.4447 C.ar    1  UNL1        0.0989
      8 N         140.8556  139.2044  162.3598 N.ar    1  UNL1       -0.2426
      9 C         141.4583  139.7659  163.6134 C.ar    1  UNL1        0.0972
     10 C         142.2338  140.3659  167.4589 C.ar    1  UNL1        0.0261
     11 C         142.6361  141.8098  167.5162 C.ar    1  UNL1        0.0015
     12 C         143.2388  142.3713  168.7698 C.ar    1  UNL1        0.0204
     13 C         143.4392  141.4889  169.9661 C.ar    1  UNL1        0.0989
     14 N         143.0370  140.0450  169.9088 N.ar    1  UNL1       -0.2426
     15 C         142.4343  139.4835  168.6553 C.ar    1  UNL1        0.0972
     16 C         139.5546  139.9865  167.7561 C.3     1  UNL1        0.0205
     17 C         140.3189  140.4445  166.5495 C.3     1  UNL1        0.0904
     18 N         139.7712  141.5428  165.6870 N.3     1  UNL1       -0.2671
     19 C         140.5580  142.8044  165.4894 C.3     1  UNL1        0.1047
     20 C         140.0103  143.9026  164.6269 C.3     1  UNL1        0.1595
     21 O         138.6756  143.7391  163.9620 O.3     1  UNL1       -0.3508
     22 C         137.8888  142.4775  164.1596 C.3     1  UNL1        0.1595
     23 C         138.4366  141.3793  165.0221 C.3     1  UNL1        0.1047
@<TRIPOS>BOND
     1    16    17    1
     2    17    18    1
     3    18    19    1
     4    19    20    1
     5    20    21    1
     6    21    22    1
     7    22    23    1
     8    17     1    1
     9     1     2    1
    10     1     4    1
    11     4     5   ar
    12     5     6   ar
    13     6     7   ar
    14     7     8   ar
    15     8     9   ar
    16     1    10    1
    17    10    11   ar
    18    11    12   ar
    19    12    13   ar
    20    13    14   ar
    21    14    15   ar
    22    23    18    1
    23     9     4   ar
    24    15    10   ar
    25     2     3    1
