@<TRIPOS>MOLECULE
*****
 37 40 0 0 0
SMALL
GASTEIGER

@<TRIPOS>ATOM
      1 C         141.4419  143.1028  161.6041 C.ar    1  UNL1        0.0537
      2 C         141.7209  142.0490  160.5738 C.ar    1  UNL1        0.0060
      3 C         142.1422  140.6745  161.0019 C.ar    1  UNL1        0.0173
      4 C         142.2845  140.3538  162.4603 C.ar    1  UNL1        0.0594
      5 C         142.0056  141.4077  163.4906 C.ar    1  UNL1        0.0130
      6 C         141.5842  142.7822  163.0625 C.ar    1  UNL1        0.0057
      7 C         142.2288  140.8026  164.8449 C.ar    1  UNL1       -0.0091
      8 C         142.6458  139.3747  164.6515 C.ar    1  UNL1        0.0331
      9 N         142.6802  139.0974  163.1778 N.ar    1  UNL1       -0.3289
     10 C         143.0461  137.7927  162.5344 C.3     1  UNL1        0.1301
     11 C         142.9403  138.5116  165.8423 C.3     1  UNL1        0.0435
     12 C         142.8178  139.0763  167.2266 C.3     1  UNL1        0.0066
     13 C         142.4008  140.5041  167.4200 C.3     1  UNL1        0.0049
     14 C         142.1063  141.3672  166.2290 C.3     1  UNL1        0.0275
     15 C         142.2783  141.0688  168.8042 C.3     1  UNL1        0.0053
     16 C         141.4748  140.3426  169.8420 C.3     1  UNL1        0.0322
     17 C         141.3523  140.9073  171.2263 C.3     1  UNL1        0.1422
     18 O         142.0333  142.1982  171.5727 O.3     1  UNL1       -0.3538
     19 C         142.8368  142.9243  170.5349 C.3     1  UNL1        0.1422
     20 C         142.9593  142.3597  169.1506 C.3     1  UNL1        0.0322
     21 C         139.2784  146.4046  161.1947 C.3     1  UNL1        0.1152
     22 N         139.6997  145.0301  161.6228 N.am    1  UNL1       -0.2735
     23 C         141.0206  144.4773  161.1760 C.2     1  UNL1        0.2491
     24 O         141.9202  145.2991  160.3012 O.2     1  UNL1       -0.2699
     25 C         138.8000  144.2083  162.4977 C.3     1  UNL1        0.1054
     26 C         138.6364  144.5608  163.9465 C.3     1  UNL1        0.1568
     27 O         139.6886  145.3703  164.6448 O.3     1  UNL1       -0.3802
     28 H         140.5108  144.8580  164.6943 H       1  UNL1        0.2105
     29 C         138.0640  143.0341  161.9238 C.3     1  UNL1        0.0319
     30 C         137.3168  142.1013  162.8303 C.3     1  UNL1        0.0868
     31 C         138.0126  140.9099  163.4189 C.2     1  UNL1        0.2226
     32 O         138.8810  140.0454  162.5538 O.2     1  UNL1       -0.2751
     33 N         137.8399  140.5831  164.8726 N.am    1  UNL1       -0.3017
     34 H         137.2699  141.1505  165.4404 H       1  UNL1        0.1495
     35 C         138.5357  139.3917  165.4613 C.3     1  UNL1        0.1278
     36 C         138.1427  138.8886  166.8186 C.3     1  UNL1        0.2143
     37 F         138.8217  139.4262  168.0433 F       1  UNL1       -0.2324
@<TRIPOS>BOND
     1    21    22    1
     2    22    23   am
     3    23    24    2
     4    23     1    1
     5     1     2   ar
     6     2     3   ar
     7     3     4   ar
     8     4     5   ar
     9     5     6   ar
    10     5     7   ar
    11     7     8   ar
    12     8     9   ar
    13     9    10    1
    14     8    11    1
    15    11    12    1
    16    12    13    1
    17    13    15    1
    18    15    16    1
    19    16    17    1
    20    17    18    1
    21    18    19    1
    22    19    20    1
    23    13    14    1
    24    22    25    1
    25    25    26    1
    26    26    27    1
    27    25    29    1
    28    29    30    1
    29    30    31    1
    30    31    32    2
    31    31    33   am
    32    33    35    1
    33    35    36    1
    34    36    37    1
    35     6     1   ar
    36    14     7    1
    37     9     4   ar
    38    20    15    1
    39    27    28    1
    40    33    34    1
@<TRIPOS>MOLECULE
*****
 37 40 0 0 0
SMALL
GASTEIGER

@<TRIPOS>ATOM
      1 C         141.8371  140.6131  160.4769 C.ar    1  UNL1        0.0537
      2 C         140.9664  141.5912  159.7454 C.ar    1  UNL1        0.0060
      3 C         140.1889  142.6211  160.5100 C.ar    1  UNL1        0.0173
      4 C         140.2820  142.6730  162.0062 C.ar    1  UNL1        0.0594
      5 C         141.1527  141.6949  162.7377 C.ar    1  UNL1        0.0130
      6 C         141.9302  140.6649  161.9731 C.ar    1  UNL1        0.0057
      7 C         141.0460  141.9866  164.2053 C.ar    1  UNL1       -0.0091
      8 C         140.1094  143.1450  164.3807 C.ar    1  UNL1        0.0331
      9 N         139.6372  143.5692  163.0216 N.ar    1  UNL1       -0.3289
     10 C         138.6870  144.6924  162.7292 C.3     1  UNL1        0.1301
     11 C         139.8074  143.6639  165.7552 C.3     1  UNL1        0.0435
     12 C         140.4421  143.0243  166.9545 C.3     1  UNL1        0.0066
     13 C         141.3788  141.8659  166.7791 C.3     1  UNL1        0.0049
     14 C         141.6807  141.3471  165.4044 C.3     1  UNL1        0.0275
     15 C         142.0135  141.2264  167.9783 C.3     1  UNL1        0.0053
     16 C         141.8291  139.7595  168.2318 C.3     1  UNL1        0.0322
     17 C         142.4638  139.1200  169.4310 C.3     1  UNL1        0.1422
     18 O         143.2830  139.9474  170.3768 O.3     1  UNL1       -0.3538
     19 C         143.4674  141.4143  170.1233 C.3     1  UNL1        0.1422
     20 C         142.8327  142.0538  168.9241 C.3     1  UNL1        0.0322
     21 C         142.6721  137.4510  158.2288 C.3     1  UNL1        0.1152
     22 N         141.8946  138.4810  158.9935 N.am    1  UNL1       -0.2735
     23 C         142.6146  139.5832  159.7122 C.2     1  UNL1        0.2491
     24 O         144.1121  139.6555  159.6664 O.2     1  UNL1       -0.2699
     25 C         140.3970  138.4086  159.0393 C.3     1  UNL1        0.1054
     26 C         139.6041  138.4648  157.7673 C.3     1  UNL1        0.1568
     27 O         139.2855  137.2005  157.0256 O.3     1  UNL1       -0.3802
     28 H         140.1059  136.8080  156.6883 H       1  UNL1        0.2105
     29 C         139.6924  138.2801  160.3572 C.3     1  UNL1        0.0319
     30 C         138.3748  138.9639  160.5731 C.3     1  UNL1        0.0868
     31 C         138.0964  139.6630  161.8707 C.2     1  UNL1        0.2226
     32 O         137.3229  140.9481  161.8794 O.2     1  UNL1       -0.2751
     33 N         138.5914  139.0768  163.1596 N.am    1  UNL1       -0.3017
     34 H         139.0991  138.2333  163.1539 H       1  UNL1        0.1495
     35 C         138.3130  139.7758  164.4573 C.3     1  UNL1        0.1278
     36 C         138.5679  139.0729  165.7576 C.3     1  UNL1        0.2143
     37 F         138.6675  139.8616  167.0296 F       1  UNL1       -0.2324
@<TRIPOS>BOND
     1    21    22    1
     2    22    23   am
     3    23    24    2
     4    23     1    1
     5     1     2   ar
     6     2     3   ar
     7     3     4   ar
     8     4     5   ar
     9     5     6   ar
    10     5     7   ar
    11     7     8   ar
    12     8     9   ar
    13     9    10    1
    14     8    11    1
    15    11    12    1
    16    12    13    1
    17    13    15    1
    18    15    16    1
    19    16    17    1
    20    17    18    1
    21    18    19    1
    22    19    20    1
    23    13    14    1
    24    22    25    1
    25    25    26    1
    26    26    27    1
    27    25    29    1
    28    29    30    1
    29    30    31    1
    30    31    32    2
    31    31    33   am
    32    33    35    1
    33    35    36    1
    34    36    37    1
    35     6     1   ar
    36    14     7    1
    37     9     4   ar
    38    20    15    1
    39    27    28    1
    40    33    34    1
@<TRIPOS>MOLECULE
*****
 37 40 0 0 0
SMALL
GASTEIGER

@<TRIPOS>ATOM
      1 C         140.6442  140.3561  159.8598 C.ar    1  UNL1        0.0537
      2 C         140.2875  141.5978  159.0976 C.ar    1  UNL1        0.0060
      3 C         140.0072  142.8748  159.8329 C.ar    1  UNL1        0.0173
      4 C         140.0836  142.9101  161.3305 C.ar    1  UNL1        0.0594
      5 C         140.4402  141.6684  162.0928 C.ar    1  UNL1        0.0130
      6 C         140.7205  140.3914  161.3574 C.ar    1  UNL1        0.0057
      7 C         140.4384  142.0052  163.5545 C.ar    1  UNL1       -0.0091
      8 C         140.0806  143.4550  163.6956 C.ar    1  UNL1        0.0331
      9 N         139.8614  144.0143  162.3212 N.ar    1  UNL1       -0.3289
     10 C         139.4858  145.4293  161.9946 C.3     1  UNL1        0.1301
     11 C         140.0008  144.0787  165.0574 C.3     1  UNL1        0.0435
     12 C         140.2787  143.2525  166.2782 C.3     1  UNL1        0.0066
     13 C         140.6364  141.8027  166.1371 C.3     1  UNL1        0.0049
     14 C         140.7163  141.1790  164.7752 C.3     1  UNL1        0.0275
     15 C         140.9143  140.9765  167.3578 C.3     1  UNL1        0.0053
     16 C         139.9122  140.9250  168.4727 C.3     1  UNL1        0.0322
     17 C         140.1901  140.0988  169.6934 C.3     1  UNL1        0.1422
     18 O         141.4702  139.3241  169.7992 O.3     1  UNL1       -0.3538
     19 C         142.4724  139.3755  168.6844 C.3     1  UNL1        0.1422
     20 C         142.1945  140.2017  167.4636 C.3     1  UNL1        0.0322
     21 C         142.6175  137.4220  158.0578 C.3     1  UNL1        0.1152
     22 N         142.3372  138.6990  158.7932 N.am    1  UNL1       -0.2735
     23 C         140.9245  139.0792  159.1244 C.2     1  UNL1        0.2491
     24 O         139.7921  138.1824  158.7202 O.2     1  UNL1       -0.2699
     25 C         143.4696  139.5958  159.1975 C.3     1  UNL1        0.1054
     26 C         144.0014  140.6137  158.2325 C.3     1  UNL1        0.1568
     27 O         145.1511  140.2664  157.3339 O.3     1  UNL1       -0.3802
     28 H         145.9466  140.1189  157.8690 H       1  UNL1        0.2105
     29 C         144.0703  139.4746  160.5666 C.3     1  UNL1        0.0319
     30 C         143.9362  138.1926  161.3337 C.3     1  UNL1        0.0868
     31 C         143.1060  138.1490  162.5822 C.2     1  UNL1        0.2226
     32 O         143.5287  138.9292  163.7916 O.2     1  UNL1       -0.2751
     33 N         141.8532  137.3251  162.6214 N.am    1  UNL1       -0.3017
     34 H         141.5757  136.8131  161.8277 H       1  UNL1        0.1495
     35 C         141.0229  137.2815  163.8700 C.3     1  UNL1        0.1278
     36 C         139.5694  137.6482  163.8174 C.3     1  UNL1        0.2143
     37 F         138.6505  137.2327  164.9277 F       1  UNL1       -0.2324
@<TRIPOS>BOND
     1    21    22    1
     2    22    23   am
     3    23    24    2
     4    23     1    1
     5     1     2   ar
     6     2     3   ar
     7     3     4   ar
     8     4     5   ar
     9     5     6   ar
    10     5     7   ar
    11     7     8   ar
    12     8     9   ar
    13     9    10    1
    14     8    11    1
    15    11    12    1
    16    12    13    1
    17    13    15    1
    18    15    16    1
    19    16    17    1
    20    17    18    1
    21    18    19    1
    22    19    20    1
    23    13    14    1
    24    22    25    1
    25    25    26    1
    26    26    27    1
    27    25    29    1
    28    29    30    1
    29    30    31    1
    30    31    32    2
    31    31    33   am
    32    33    35    1
    33    35    36    1
    34    36    37    1
    35     6     1   ar
    36    14     7    1
    37     9     4   ar
    38    20    15    1
    39    27    28    1
    40    33    34    1
@<TRIPOS>MOLECULE
*****
 37 40 0 0 0
SMALL
GASTEIGER

@<TRIPOS>ATOM
      1 C         140.2242  142.9321  160.7289 C.ar    1  UNL1        0.0537
      2 C         139.6604  141.7509  159.9961 C.ar    1  UNL1        0.0060
      3 C         139.3231  140.4953  160.7442 C.ar    1  UNL1        0.0173
      4 C         139.5495  140.4208  162.2251 C.ar    1  UNL1        0.0594
      5 C         140.1133  141.6020  162.9579 C.ar    1  UNL1        0.0130
      6 C         140.4506  142.8576  162.2098 C.ar    1  UNL1        0.0057
      7 C         140.2266  141.2366  164.4084 C.ar    1  UNL1       -0.0091
      8 C         139.7329  139.8297  164.5719 C.ar    1  UNL1        0.0331
      9 N         139.3145  139.3255  163.2226 N.ar    1  UNL1       -0.3289
     10 C         138.7585  137.9649  162.9233 C.3     1  UNL1        0.1301
     11 C         139.7282  139.1894  165.9283 C.3     1  UNL1        0.0435
     12 C         140.2172  139.9561  167.1213 C.3     1  UNL1        0.0066
     13 C         140.7109  141.3631  166.9577 C.3     1  UNL1        0.0049
     14 C         140.7156  142.0033  165.6012 C.3     1  UNL1        0.0275
     15 C         141.1999  142.1298  168.1507 C.3     1  UNL1        0.0053
     16 C         142.5737  141.8733  168.6954 C.3     1  UNL1        0.0322
     17 C         143.0627  142.6400  169.8883 C.3     1  UNL1        0.1422
     18 O         142.1777  143.6632  170.5365 O.3     1  UNL1       -0.3538
     19 C         140.8039  143.9197  169.9918 C.3     1  UNL1        0.1422
     20 C         140.3149  143.1530  168.7989 C.3     1  UNL1        0.0322
     21 C         142.1487  145.5111  158.4062 C.3     1  UNL1        0.1152
     22 N         141.8114  144.2555  159.1543 N.am    1  UNL1       -0.2735
     23 C         140.5615  144.1877  159.9808 C.2     1  UNL1        0.2491
     24 O         139.6489  145.3755  160.0592 O.2     1  UNL1       -0.2699
     25 C         142.7240  143.0676  159.0759 C.3     1  UNL1        0.1054
     26 C         142.6236  142.1198  157.9176 C.3     1  UNL1        0.1568
     27 O         141.8519  142.5118  156.6925 O.3     1  UNL1       -0.3802
     28 H         140.9117  142.5956  156.9157 H       1  UNL1        0.2105
     29 C         143.7371  142.8276  160.1557 C.3     1  UNL1        0.0319
     30 C         143.9749  141.4369  160.6654 C.3     1  UNL1        0.0868
     31 C         144.3994  141.2218  162.0878 C.2     1  UNL1        0.2226
     32 O         145.7350  141.7196  162.5554 O.2     1  UNL1       -0.2751
     33 N         143.4885  140.5089  163.0427 N.am    1  UNL1       -0.3017
     34 H         142.6120  140.1822  162.7359 H       1  UNL1        0.1495
     35 C         143.9131  140.2938  164.4653 C.3     1  UNL1        0.1278
     36 C         143.4040  139.1072  165.2286 C.3     1  UNL1        0.2143
     37 F         143.4130  139.1201  166.7285 F       1  UNL1       -0.2324
@<TRIPOS>BOND
     1    21    22    1
     2    22    23   am
     3    23    24    2
     4    23     1    1
     5     1     2   ar
     6     2     3   ar
     7     3     4   ar
     8     4     5   ar
     9     5     6   ar
    10     5     7   ar
    11     7     8   ar
    12     8     9   ar
    13     9    10    1
    14     8    11    1
    15    11    12    1
    16    12    13    1
    17    13    15    1
    18    15    16    1
    19    16    17    1
    20    17    18    1
    21    18    19    1
    22    19    20    1
    23    13    14    1
    24    22    25    1
    25    25    26    1
    26    26    27    1
    27    25    29    1
    28    29    30    1
    29    30    31    1
    30    31    32    2
    31    31    33   am
    32    33    35    1
    33    35    36    1
    34    36    37    1
    35     6     1   ar
    36    14     7    1
    37     9     4   ar
    38    20    15    1
    39    27    28    1
    40    33    34    1
@<TRIPOS>MOLECULE
*****
 37 40 0 0 0
SMALL
GASTEIGER

@<TRIPOS>ATOM
      1 C         142.3426  140.1981  159.8693 C.ar    1  UNL1        0.0537
      2 C         141.2433  139.5616  159.0717 C.ar    1  UNL1        0.0060
      3 C         140.0225  139.0336  159.7653 C.ar    1  UNL1        0.0173
      4 C         139.9011  139.1422  161.2563 C.ar    1  UNL1        0.0594
      5 C         141.0005  139.7787  162.0539 C.ar    1  UNL1        0.0130
      6 C         142.2212  140.3066  161.3604 C.ar    1  UNL1        0.0057
      7 C         140.6032  139.7452  163.5001 C.ar    1  UNL1       -0.0091
      8 C         139.2584  139.0879  163.5962 C.ar    1  UNL1        0.0331
      9 N         138.8244  138.7153  162.2095 N.ar    1  UNL1       -0.3289
     10 C         137.5393  138.0351  161.8407 C.3     1  UNL1        0.1301
     11 C         138.6026  138.9137  164.9338 C.3     1  UNL1        0.0435
     12 C         139.2918  139.3967  166.1755 C.3     1  UNL1        0.0066
     13 C         140.6367  140.0539  166.0794 C.3     1  UNL1        0.0049
     14 C         141.2924  140.2281  164.7416 C.3     1  UNL1        0.0275
     15 C         141.3259  140.5369  167.3211 C.3     1  UNL1        0.0053
     16 C         140.9368  139.9816  168.6591 C.3     1  UNL1        0.0322
     17 C         141.6260  140.4647  169.9008 C.3     1  UNL1        0.1422
     18 O         142.7043  141.5030  169.8044 O.3     1  UNL1       -0.3538
     19 C         143.0934  142.0582  168.4664 C.3     1  UNL1        0.1422
     20 C         142.4042  141.5752  167.2247 C.3     1  UNL1        0.0322
     21 C         145.0185  142.7331  158.3984 C.3     1  UNL1        0.1152
     22 N         143.7977  142.2052  159.0919 N.am    1  UNL1       -0.2735
     23 C         143.5634  140.7260  159.1758 C.2     1  UNL1        0.2491
     24 O         144.5500  139.7747  158.5661 O.2     1  UNL1       -0.2699
     25 C         142.8111  143.1565  159.7016 C.3     1  UNL1        0.1054
     26 C         143.0066  143.6406  161.1079 C.3     1  UNL1        0.1568
     27 O         142.4981  144.9922  161.5134 O.3     1  UNL1       -0.3802
     28 H         142.9889  145.6790  161.0356 H       1  UNL1        0.2105
     29 C         141.6291  143.6238  158.9051 C.3     1  UNL1        0.0319
     30 C         140.2664  143.0631  159.1859 C.3     1  UNL1        0.0868
     31 C         139.4823  143.5536  160.3668 C.2     1  UNL1        0.2226
     32 O         139.5234  145.0048  160.7439 O.2     1  UNL1       -0.2751
     33 N         138.6572  142.5929  161.1706 N.am    1  UNL1       -0.3017
     34 H         138.6303  141.6404  160.9230 H       1  UNL1        0.1495
     35 C         137.8730  143.0833  162.3516 C.3     1  UNL1        0.1278
     36 C         137.3655  142.1083  163.3721 C.3     1  UNL1        0.2143
     37 F         137.9182  142.1263  164.7664 F       1  UNL1       -0.2324
@<TRIPOS>BOND
     1    21    22    1
     2    22    23   am
     3    23    24    2
     4    23     1    1
     5     1     2   ar
     6     2     3   ar
     7     3     4   ar
     8     4     5   ar
     9     5     6   ar
    10     5     7   ar
    11     7     8   ar
    12     8     9   ar
    13     9    10    1
    14     8    11    1
    15    11    12    1
    16    12    13    1
    17    13    15    1
    18    15    16    1
    19    16    17    1
    20    17    18    1
    21    18    19    1
    22    19    20    1
    23    13    14    1
    24    22    25    1
    25    25    26    1
    26    26    27    1
    27    25    29    1
    28    29    30    1
    29    30    31    1
    30    31    32    2
    31    31    33   am
    32    33    35    1
    33    35    36    1
    34    36    37    1
    35     6     1   ar
    36    14     7    1
    37     9     4   ar
    38    20    15    1
    39    27    28    1
    40    33    34    1
@<TRIPOS>MOLECULE
*****
 37 40 0 0 0
SMALL
GASTEIGER

@<TRIPOS>ATOM
      1 C         141.6840  141.4974  160.5958 C.ar    1  UNL1        0.0537
      2 C         140.9268  140.3759  159.9488 C.ar    1  UNL1        0.0060
      3 C         140.1354  139.4206  160.7921 C.ar    1  UNL1        0.0173
      4 C         140.1012  139.5869  162.2825 C.ar    1  UNL1        0.0594
      5 C         140.8584  140.7085  162.9295 C.ar    1  UNL1        0.0130
      6 C         141.6498  141.6638  162.0861 C.ar    1  UNL1        0.0057
      7 C         140.6391  140.6220  164.4109 C.ar    1  UNL1       -0.0091
      8 C         139.7463  139.4469  164.6794 C.ar    1  UNL1        0.0331
      9 N         139.4139  138.8072  163.3639 N.ar    1  UNL1       -0.3289
     10 C         138.5465  137.5998  163.1649 C.3     1  UNL1        0.1301
     11 C         139.3514  139.1111  166.0869 C.3     1  UNL1        0.0435
     12 C         139.8493  139.9505  167.2260 C.3     1  UNL1        0.0066
     13 C         140.7421  141.1256  166.9575 C.3     1  UNL1        0.0049
     14 C         141.1369  141.4613  165.5499 C.3     1  UNL1        0.0275
     15 C         141.2400  141.9650  168.0967 C.3     1  UNL1        0.0053
     16 C         142.6363  141.7781  168.6117 C.3     1  UNL1        0.0322
     17 C         143.1342  142.6175  169.7508 C.3     1  UNL1        0.1422
     18 O         142.2356  143.6438  170.3749 O.3     1  UNL1       -0.3538
     19 C         140.8393  143.8307  169.8599 C.3     1  UNL1        0.1422
     20 C         140.3414  142.9913  168.7207 C.3     1  UNL1        0.0322
     21 C         142.6408  144.6861  158.4355 C.3     1  UNL1        0.1152
     22 N         141.8494  143.7308  159.2789 N.am    1  UNL1       -0.2735
     23 C         142.4754  142.4527  159.7525 C.2     1  UNL1        0.2491
     24 O         143.8928  142.1298  159.3828 O.2     1  UNL1       -0.2699
     25 C         140.4320  144.0538  159.6485 C.3     1  UNL1        0.1054
     26 C         139.3054  143.2415  159.0819 C.3     1  UNL1        0.1568
     27 O         138.1788  142.8005  159.9686 O.3     1  UNL1       -0.3802
     28 H         138.5137  142.1747  160.6298 H       1  UNL1        0.2105
     29 C         140.1411  145.1891  160.5847 C.3     1  UNL1        0.0319
     30 C         139.7646  144.9087  162.0095 C.3     1  UNL1        0.0868
     31 C         140.8148  144.9275  163.0803 C.2     1  UNL1        0.2226
     32 O         140.4338  144.6747  164.5089 O.2     1  UNL1       -0.2751
     33 N         142.2459  145.1992  162.7225 N.am    1  UNL1       -0.3017
     34 H         142.4959  145.3652  161.7849 H       1  UNL1        0.1495
     35 C         143.2962  145.2180  163.7934 C.3     1  UNL1        0.1278
     36 C         143.9387  143.9371  164.2364 C.3     1  UNL1        0.2143
     37 F         144.7732  143.9084  165.4824 F       1  UNL1       -0.2324
@<TRIPOS>BOND
     1    21    22    1
     2    22    23   am
     3    23    24    2
     4    23     1    1
     5     1     2   ar
     6     2     3   ar
     7     3     4   ar
     8     4     5   ar
     9     5     6   ar
    10     5     7   ar
    11     7     8   ar
    12     8     9   ar
    13     9    10    1
    14     8    11    1
    15    11    12    1
    16    12    13    1
    17    13    15    1
    18    15    16    1
    19    16    17    1
    20    17    18    1
    21    18    19    1
    22    19    20    1
    23    13    14    1
    24    22    25    1
    25    25    26    1
    26    26    27    1
    27    25    29    1
    28    29    30    1
    29    30    31    1
    30    31    32    2
    31    31    33   am
    32    33    35    1
    33    35    36    1
    34    36    37    1
    35     6     1   ar
    36    14     7    1
    37     9     4   ar
    38    20    15    1
    39    27    28    1
    40    33    34    1
@<TRIPOS>MOLECULE
*****
 37 40 0 0 0
SMALL
GASTEIGER

@<TRIPOS>ATOM
      1 C         141.7827  141.1426  161.1585 C.ar    1  UNL1        0.0537
      2 C         141.1110  140.0461  160.3861 C.ar    1  UNL1        0.0060
      3 C         140.1850  139.0951  161.0848 C.ar    1  UNL1        0.0173
      4 C         139.9306  139.2406  162.5558 C.ar    1  UNL1        0.0594
      5 C         140.6022  140.3371  163.3282 C.ar    1  UNL1        0.0130
      6 C         141.5283  141.2881  162.6295 C.ar    1  UNL1        0.0057
      7 C         140.1616  140.2337  164.7584 C.ar    1  UNL1       -0.0091
      8 C         139.2177  139.0733  164.8698 C.ar    1  UNL1        0.0331
      9 N         139.0750  138.4596  163.5086 N.ar    1  UNL1       -0.3289
     10 C         138.2256  137.2730  163.1611 C.3     1  UNL1        0.1301
     11 C         138.6102  138.7254  166.1963 C.3     1  UNL1        0.0435
     12 C         138.9465  139.5380  167.4115 C.3     1  UNL1        0.0066
     13 C         139.8905  140.6984  167.3001 C.3     1  UNL1        0.0049
     14 C         140.4980  141.0463  165.9735 C.3     1  UNL1        0.0275
     15 C         140.2268  141.5110  168.5152 C.3     1  UNL1        0.0053
     16 C         140.3460  143.0026  168.4106 C.3     1  UNL1        0.0322
     17 C         140.6824  143.8152  169.6258 C.3     1  UNL1        0.1422
     18 O         140.8995  143.1361  170.9456 O.3     1  UNL1       -0.3538
     19 C         140.7803  141.6445  171.0502 C.3     1  UNL1        0.1422
     20 C         140.4440  140.8319  169.8350 C.3     1  UNL1        0.0322
     21 C         143.1107  143.9446  158.6816 C.3     1  UNL1        0.1152
     22 N         142.1847  142.9936  159.3803 N.am    1  UNL1       -0.2735
     23 C         142.7087  142.0935  160.4598 C.2     1  UNL1        0.2491
     24 O         144.1586  142.1444  160.8406 O.2     1  UNL1       -0.2699
     25 C         140.7347  142.9427  158.9995 C.3     1  UNL1        0.1054
     26 C         140.3243  142.3404  157.6884 C.3     1  UNL1        0.1568
     27 O         141.2545  141.4117  156.9659 O.3     1  UNL1       -0.3802
     28 H         142.0422  141.9005  156.6804 H       1  UNL1        0.2105
     29 C         139.6952  143.4942  159.9296 C.3     1  UNL1        0.0319
     30 C         138.5356  142.6403  160.3495 C.3     1  UNL1        0.0868
     31 C         137.9890  142.7498  161.7420 C.2     1  UNL1        0.2226
     32 O         137.3122  141.5713  162.3769 O.2     1  UNL1       -0.2751
     33 N         138.1191  144.0378  162.4996 N.am    1  UNL1       -0.3017
     34 H         138.5634  144.8113  162.0829 H       1  UNL1        0.1495
     35 C         137.5725  144.1474  163.8922 C.3     1  UNL1        0.1278
     36 C         138.5086  144.2118  165.0625 C.3     1  UNL1        0.2143
     37 F         138.5163  145.4202  165.9510 F       1  UNL1       -0.2324
@<TRIPOS>BOND
     1    21    22    1
     2    22    23   am
     3    23    24    2
     4    23     1    1
     5     1     2   ar
     6     2     3   ar
     7     3     4   ar
     8     4     5   ar
     9     5     6   ar
    10     5     7   ar
    11     7     8   ar
    12     8     9   ar
    13     9    10    1
    14     8    11    1
    15    11    12    1
    16    12    13    1
    17    13    15    1
    18    15    16    1
    19    16    17    1
    20    17    18    1
    21    18    19    1
    22    19    20    1
    23    13    14    1
    24    22    25    1
    25    25    26    1
    26    26    27    1
    27    25    29    1
    28    29    30    1
    29    30    31    1
    30    31    32    2
    31    31    33   am
    32    33    35    1
    33    35    36    1
    34    36    37    1
    35     6     1   ar
    36    14     7    1
    37     9     4   ar
    38    20    15    1
    39    27    28    1
    40    33    34    1
@<TRIPOS>MOLECULE
*****
 37 40 0 0 0
SMALL
GASTEIGER

@<TRIPOS>ATOM
      1 C         141.6537  143.5543  160.3674 C.ar    1  UNL1        0.0537
      2 C         141.1697  142.1382  160.2653 C.ar    1  UNL1        0.0060
      3 C         140.2203  141.7471  159.1718 C.ar    1  UNL1        0.0173
      4 C         139.7549  142.7720  158.1805 C.ar    1  UNL1        0.0594
      5 C         140.2388  144.1880  158.2825 C.ar    1  UNL1        0.0130
      6 C         141.1882  144.5792  159.3760 C.ar    1  UNL1        0.0057
      7 C         139.6115  144.9737  157.1693 C.ar    1  UNL1       -0.0091
      8 C         138.7399  144.0431  156.3792 C.ar    1  UNL1        0.0331
      9 N         138.8285  142.6824  157.0042 N.ar    1  UNL1       -0.3289
     10 C         138.1158  141.4486  156.5351 C.3     1  UNL1        0.1301
     11 C         137.9781  144.5550  155.1928 C.3     1  UNL1        0.0435
     12 C         138.0879  145.9975  154.7965 C.3     1  UNL1        0.0066
     13 C         138.9596  146.9281  155.5865 C.3     1  UNL1        0.0049
     14 C         139.7214  146.4161  156.7729 C.3     1  UNL1        0.0275
     15 C         139.0694  148.3706  155.1902 C.3     1  UNL1        0.0053
     16 C         139.7541  148.7465  153.9096 C.3     1  UNL1        0.0322
     17 C         139.8639  150.1890  153.5132 C.3     1  UNL1        0.1422
     18 O         139.2891  151.2557  154.3976 O.3     1  UNL1       -0.3538
     19 C         138.6045  150.8798  155.6781 C.3     1  UNL1        0.1422
     20 C         138.4946  149.4373  156.0745 C.3     1  UNL1        0.0322
     21 C         143.0423  145.0517  163.7702 C.3     1  UNL1        0.1152
     22 N         142.0930  144.6606  162.6767 N.am    1  UNL1       -0.2735
     23 C         142.6030  143.9455  161.4608 C.2     1  UNL1        0.2491
     24 O         144.0625  143.6217  161.3384 O.2     1  UNL1       -0.2699
     25 C         140.6334  144.9844  162.7993 C.3     1  UNL1        0.1054
     26 C         140.1102  146.2937  162.2873 C.3     1  UNL1        0.1568
     27 O         138.9118  146.3215  161.3856 O.3     1  UNL1       -0.3802
     28 H         139.1312  145.8937  160.5431 H       1  UNL1        0.2105
     29 C         139.6972  143.9991  163.4337 C.3     1  UNL1        0.0319
     30 C         138.6438  143.3250  162.6055 C.3     1  UNL1        0.0868
     31 C         138.2312  141.9171  162.9178 C.2     1  UNL1        0.2226
     32 O         136.7813  141.5346  162.8805 O.2     1  UNL1       -0.2751
     33 N         139.2686  140.8917  163.2675 N.am    1  UNL1       -0.3017
     34 H         140.2202  141.1427  163.2920 H       1  UNL1        0.1495
     35 C         138.8560  139.4837  163.5799 C.3     1  UNL1        0.1278
     36 C         138.3689  138.5840  162.4830 C.3     1  UNL1        0.2143
     37 F         139.3119  137.6150  161.8336 F       1  UNL1       -0.2324
@<TRIPOS>BOND
     1    21    22    1
     2    22    23   am
     3    23    24    2
     4    23     1    1
     5     1     2   ar
     6     2     3   ar
     7     3     4   ar
     8     4     5   ar
     9     5     6   ar
    10     5     7   ar
    11     7     8   ar
    12     8     9   ar
    13     9    10    1
    14     8    11    1
    15    11    12    1
    16    12    13    1
    17    13    15    1
    18    15    16    1
    19    16    17    1
    20    17    18    1
    21    18    19    1
    22    19    20    1
    23    13    14    1
    24    22    25    1
    25    25    26    1
    26    26    27    1
    27    25    29    1
    28    29    30    1
    29    30    31    1
    30    31    32    2
    31    31    33   am
    32    33    35    1
    33    35    36    1
    34    36    37    1
    35     6     1   ar
    36    14     7    1
    37     9     4   ar
    38    20    15    1
    39    27    28    1
    40    33    34    1
@<TRIPOS>MOLECULE
*****
 37 40 0 0 0
SMALL
GASTEIGER

@<TRIPOS>ATOM
      1 C         142.5053  139.6116  159.5698 C.ar    1  UNL1        0.0537
      2 C         143.4660  140.6727  159.1213 C.ar    1  UNL1        0.0060
      3 C         143.8246  141.7988  160.0451 C.ar    1  UNL1        0.0173
      4 C         143.2224  141.8638  161.4173 C.ar    1  UNL1        0.0594
      5 C         142.2617  140.8028  161.8658 C.ar    1  UNL1        0.0130
      6 C         141.9031  139.6767  160.9420 C.ar    1  UNL1        0.0057
      7 C         141.8309  141.1290  163.2651 C.ar    1  UNL1       -0.0091
      8 C         142.5255  142.3916  163.6815 C.ar    1  UNL1        0.0331
      9 N         143.3855  142.8458  162.5394 N.ar    1  UNL1       -0.3289
     10 C         144.2557  144.0674  162.5225 C.3     1  UNL1        0.1301
     11 C         142.2852  142.9647  165.0466 C.3     1  UNL1        0.0435
     12 C         141.3503  142.2751  165.9955 C.3     1  UNL1        0.0066
     13 C         140.6557  141.0124  165.5792 C.3     1  UNL1        0.0049
     14 C         140.8961  140.4394  164.2140 C.3     1  UNL1        0.0275
     15 C         139.7208  140.3229  166.5281 C.3     1  UNL1        0.0053
     16 C         139.8194  140.5853  168.0017 C.3     1  UNL1        0.0322
     17 C         138.8845  139.8958  168.9506 C.3     1  UNL1        0.1422
     18 O         137.8509  138.9436  168.4259 O.3     1  UNL1       -0.3538
     19 C         137.7522  138.6811  166.9523 C.3     1  UNL1        0.1422
     20 C         138.6872  139.3707  166.0034 C.3     1  UNL1        0.0322
     21 C         140.5612  137.4545  156.8647 C.3     1  UNL1        0.1152
     22 N         140.9198  138.5806  157.7884 N.am    1  UNL1       -0.2735
     23 C         142.1467  138.4855  158.6460 C.2     1  UNL1        0.2491
     24 O         143.0152  137.2643  158.5798 O.2     1  UNL1       -0.2699
     25 C         140.0513  139.8019  157.8546 C.3     1  UNL1        0.1054
     26 C         140.3114  140.9579  156.9348 C.3     1  UNL1        0.1568
     27 O         139.5634  141.0687  155.6394 O.3     1  UNL1       -0.3802
     28 H         139.8173  140.3366  155.0558 H       1  UNL1        0.2105
     29 C         138.9227  139.8671  158.8406 C.3     1  UNL1        0.0319
     30 C         138.3831  141.1973  159.2760 C.3     1  UNL1        0.0868
     31 C         138.2867  141.5259  160.7364 C.2     1  UNL1        0.2226
     32 O         138.4083  140.4361  161.7599 O.2     1  UNL1       -0.2751
     33 N         138.0685  142.9442  161.1731 N.am    1  UNL1       -0.3017
     34 H         137.9887  143.6594  160.5013 H       1  UNL1        0.1495
     35 C         137.9720  143.2728  162.6336 C.3     1  UNL1        0.1278
     36 C         138.6209  144.5154  163.1672 C.3     1  UNL1        0.2143
     37 F         139.2667  144.5022  164.5209 F       1  UNL1       -0.2324
@<TRIPOS>BOND
     1    21    22    1
     2    22    23   am
     3    23    24    2
     4    23     1    1
     5     1     2   ar
     6     2     3   ar
     7     3     4   ar
     8     4     5   ar
     9     5     6   ar
    10     5     7   ar
    11     7     8   ar
    12     8     9   ar
    13     9    10    1
    14     8    11    1
    15    11    12    1
    16    12    13    1
    17    13    15    1
    18    15    16    1
    19    16    17    1
    20    17    18    1
    21    18    19    1
    22    19    20    1
    23    13    14    1
    24    22    25    1
    25    25    26    1
    26    26    27    1
    27    25    29    1
    28    29    30    1
    29    30    31    1
    30    31    32    2
    31    31    33   am
    32    33    35    1
    33    35    36    1
    34    36    37    1
    35     6     1   ar
    36    14     7    1
    37     9     4   ar
    38    20    15    1
    39    27    28    1
    40    33    34    1
