@<TRIPOS>MOLECULE
*****
 32 35 0 0 0
SMALL
GASTEIGER

@<TRIPOS>ATOM
      1 C         142.6893  142.1513  166.3227 C.ar    1  UNL1        0.1773
      2 C         141.4539  142.9146  165.9468 C.ar    1  UNL1        0.1402
      3 N         140.5892  142.4336  164.8196 N.ar    1  UNL1       -0.2089
      4 C         140.9597  141.1894  164.0682 C.ar    1  UNL1        0.2205
      5 N         142.1951  140.4261  164.4441 N.ar    1  UNL1       -0.2089
      6 C         143.0598  140.9070  165.5714 C.ar    1  UNL1        0.1402
      7 N         140.0949  140.7084  162.9409 N.pl3   1  UNL1       -0.2748
      8 C         138.6997  140.2315  163.2167 C.3     1  UNL1        0.1135
      9 C         137.8349  139.7506  162.0894 C.3     1  UNL1        0.0984
     10 C         137.3560  139.3774  160.7177 C.3     1  UNL1        0.0234
     11 C         138.4677  139.6503  159.7485 C.3     1  UNL1        0.0234
     12 C         139.6338  140.1921  160.5210 C.3     1  UNL1        0.0984
     13 C         140.6253  140.7042  161.5378 C.3     1  UNL1        0.1135
     14 N         139.2427  140.2541  161.9678 N.am    1  UNL1       -0.2459
     15 C         140.1074  140.7350  163.0951 C.2     1  UNL1        0.4051
     16 O         141.5026  141.2118  162.8194 O.2     1  UNL1       -0.2262
     17 O         139.5770  140.7392  164.4982 O.3     1  UNL1       -0.4252
     18 C         139.5520  139.4682  165.2943 C.3     1  UNL1        0.3125
     19 C         139.0297  139.4740  166.7004 C.3     1  UNL1        0.4382
     20 F         138.5074  139.4798  168.1065 F       1  UNL1       -0.1663
     21 F         137.6326  139.3021  166.1822 F       1  UNL1       -0.1663
     22 F         140.4268  139.6459  167.2186 F       1  UNL1       -0.1663
     23 O         143.5541  142.6322  167.4500 O.3     1  UNL1       -0.4675
     24 C         143.4193  142.0200  168.8127 C.3     1  UNL1        0.2329
     25 C         141.5541  140.7640  170.1138 C.ar    1  UNL1        0.0871
     26 C         140.2263  140.7716  170.8116 C.ar    1  UNL1        0.1089
     27 N         139.4360  142.0430  170.9060 N.ar    1  UNL1       -0.2416
     28 C         139.9735  143.3067  170.3027 C.ar    1  UNL1        0.0987
     29 C         141.3012  143.2991  169.6050 C.ar    1  UNL1        0.0207
     30 C         142.0915  142.0277  169.5105 C.ar    1  UNL1        0.0339
     31 N         143.1347  138.2211  169.9249 N.1     1  UNL1       -0.1908
     32 C         142.3444  139.4925  170.0194 C.1     1  UNL1        0.1018
@<TRIPOS>BOND
     1    31    32    3
     2    32    25    1
     3    25    26   ar
     4    26    27   ar
     5    27    28   ar
     6    28    29   ar
     7    29    30   ar
     8    30    24    1
     9    24    23    1
    10    23     1    1
    11     1     2   ar
    12     2     3   ar
    13     3     4   ar
    14     4     7    1
    15     7     8    1
    16     8     9    1
    17     9    10    1
    18    10    11    1
    19    11    12    1
    20    12    13    1
    21    12    14    1
    22    14    15   am
    23    15    16    2
    24    15    17    1
    25    17    18    1
    26    18    19    1
    27    19    20    1
    28    19    21    1
    29    19    22    1
    30     4     5   ar
    31     5     6   ar
    32    30    25   ar
    33     6     1   ar
    34    13     7    1
    35    14     9    1
@<TRIPOS>MOLECULE
*****
 32 35 0 0 0
SMALL
GASTEIGER

@<TRIPOS>ATOM
      1 C         143.4834  142.9242  164.4444 C.ar    1  UNL1        0.1773
      2 C         143.9279  144.2355  163.8674 C.ar    1  UNL1        0.1402
      3 N         143.4216  144.6745  162.5254 N.ar    1  UNL1       -0.2089
      4 C         142.4708  143.8022  161.7605 C.ar    1  UNL1        0.2205
      5 N         142.0264  142.4909  162.3375 N.ar    1  UNL1       -0.2089
      6 C         142.5327  142.0519  163.6794 C.ar    1  UNL1        0.1402
      7 N         141.9645  144.2413  160.4184 N.pl3   1  UNL1       -0.2748
      8 C         140.8480  145.2388  160.3277 C.3     1  UNL1        0.1135
      9 C         140.3417  145.6778  158.9857 C.3     1  UNL1        0.0984
     10 C         140.1683  145.8177  157.5023 C.3     1  UNL1        0.0234
     11 C         141.1652  144.9193  156.8324 C.3     1  UNL1        0.0234
     12 C         141.9549  144.2242  157.9016 C.3     1  UNL1        0.0984
     13 C         142.5748  143.6827  159.1672 C.3     1  UNL1        0.1135
     14 N         141.4459  144.6929  159.2325 N.am    1  UNL1       -0.2459
     15 C         141.9521  144.2539  160.5745 C.2     1  UNL1        0.4051
     16 O         143.0687  143.2564  160.6652 O.2     1  UNL1       -0.2262
     17 O         141.3419  144.8125  161.8257 O.3     1  UNL1       -0.4252
     18 C         140.0051  144.3183  162.2934 C.3     1  UNL1        0.3125
     19 C         139.4157  144.8432  163.5689 C.3     1  UNL1        0.4382
     20 F         138.8263  145.3682  164.8445 F       1  UNL1       -0.1663
     21 F         138.0417  144.7412  162.9761 F       1  UNL1       -0.1663
     22 F         140.7898  144.9452  164.1618 F       1  UNL1       -0.1663
     23 O         143.9897  142.4851  165.7863 O.3     1  UNL1       -0.4675
     24 C         143.1350  141.6195  166.6640 C.3     1  UNL1        0.2329
     25 C         141.0631  142.5147  167.9506 C.ar    1  UNL1        0.0871
     26 C         140.4541  143.0815  169.1986 C.ar    1  UNL1        0.1089
     27 N         141.3083  143.3199  170.4084 N.ar    1  UNL1       -0.2416
     28 C         142.7714  142.9916  170.3700 C.ar    1  UNL1        0.0987
     29 C         143.3804  142.4248  169.1219 C.ar    1  UNL1        0.0207
     30 C         142.5262  142.1863  167.9122 C.ar    1  UNL1        0.0339
     31 N         139.3547  142.0378  165.5310 N.1     1  UNL1       -0.1908
     32 C         140.2089  142.2762  166.7408 C.1     1  UNL1        0.1018
@<TRIPOS>BOND
     1    31    32    3
     2    32    25    1
     3    25    26   ar
     4    26    27   ar
     5    27    28   ar
     6    28    29   ar
     7    29    30   ar
     8    30    24    1
     9    24    23    1
    10    23     1    1
    11     1     2   ar
    12     2     3   ar
    13     3     4   ar
    14     4     7    1
    15     7     8    1
    16     8     9    1
    17     9    10    1
    18    10    11    1
    19    11    12    1
    20    12    13    1
    21    12    14    1
    22    14    15   am
    23    15    16    2
    24    15    17    1
    25    17    18    1
    26    18    19    1
    27    19    20    1
    28    19    21    1
    29    19    22    1
    30     4     5   ar
    31     5     6   ar
    32    30    25   ar
    33     6     1   ar
    34    13     7    1
    35    14     9    1
@<TRIPOS>MOLECULE
*****
 32 35 0 0 0
SMALL
GASTEIGER

@<TRIPOS>ATOM
      1 C         142.6357  139.2587  166.6180 C.ar    1  UNL1        0.1773
      2 C         141.9655  140.5330  166.1972 C.ar    1  UNL1        0.1402
      3 N         141.4039  140.6630  164.8124 N.ar    1  UNL1       -0.2089
      4 C         141.5125  139.5189  163.8485 C.ar    1  UNL1        0.2205
      5 N         142.1828  138.2446  164.2694 N.ar    1  UNL1       -0.2089
      6 C         142.7443  138.1146  165.6541 C.ar    1  UNL1        0.1402
      7 N         140.9509  139.6489  162.4636 N.pl3   1  UNL1       -0.2748
      8 C         139.7190  138.8845  162.0790 C.3     1  UNL1        0.1135
      9 C         139.1574  139.0146  160.6942 C.3     1  UNL1        0.0984
     10 C         138.9627  139.4342  159.2674 C.3     1  UNL1        0.0234
     11 C         140.0610  140.3921  158.9120 C.3     1  UNL1        0.0234
     12 C         140.9345  140.5644  160.1192 C.3     1  UNL1        0.0984
     13 C         141.6213  140.5435  161.4634 C.3     1  UNL1        0.1135
     14 N         140.3761  139.7130  161.2207 N.am    1  UNL1       -0.2459
     15 C         140.9376  139.5829  162.6055 C.2     1  UNL1        0.4051
     16 O         142.1695  140.3474  162.9901 O.2     1  UNL1       -0.2262
     17 O         140.2672  138.6884  163.6057 O.3     1  UNL1       -0.4252
     18 C         139.0982  139.1932  164.3983 C.3     1  UNL1        0.3125
     19 C         138.4974  138.3394  165.4754 C.3     1  UNL1        0.4382
     20 F         137.8965  137.4856  166.5524 F       1  UNL1       -0.1663
     21 F         139.3261  137.1766  165.0160 F       1  UNL1       -0.1663
     22 F         137.6686  139.5022  165.9347 F       1  UNL1       -0.1663
     23 O         143.1973  139.1286  168.0028 O.3     1  UNL1       -0.4675
     24 C         142.3280  139.4040  169.1938 C.3     1  UNL1        0.2329
     25 C         140.6840  141.3379  169.7479 C.ar    1  UNL1        0.0871
     26 C         140.4420  142.7508  170.1893 C.ar    1  UNL1        0.1089
     27 N         141.6022  143.6429  170.5182 N.ar    1  UNL1       -0.2416
     28 C         143.0043  143.1220  170.4056 C.ar    1  UNL1        0.0987
     29 C         143.2463  141.7091  169.9641 C.ar    1  UNL1        0.0207
     30 C         142.0861  140.8170  169.6353 C.ar    1  UNL1        0.0339
     31 N         138.3635  139.5537  169.0902 N.1     1  UNL1       -0.1908
     32 C         139.5238  140.4458  169.4190 C.1     1  UNL1        0.1018
@<TRIPOS>BOND
     1    31    32    3
     2    32    25    1
     3    25    26   ar
     4    26    27   ar
     5    27    28   ar
     6    28    29   ar
     7    29    30   ar
     8    30    24    1
     9    24    23    1
    10    23     1    1
    11     1     2   ar
    12     2     3   ar
    13     3     4   ar
    14     4     7    1
    15     7     8    1
    16     8     9    1
    17     9    10    1
    18    10    11    1
    19    11    12    1
    20    12    13    1
    21    12    14    1
    22    14    15   am
    23    15    16    2
    24    15    17    1
    25    17    18    1
    26    18    19    1
    27    19    20    1
    28    19    21    1
    29    19    22    1
    30     4     5   ar
    31     5     6   ar
    32    30    25   ar
    33     6     1   ar
    34    13     7    1
    35    14     9    1
@<TRIPOS>MOLECULE
*****
 32 35 0 0 0
SMALL
GASTEIGER

@<TRIPOS>ATOM
      1 C         142.3764  139.6928  166.6999 C.ar    1  UNL1        0.1773
      2 C         141.6086  140.9530  166.4307 C.ar    1  UNL1        0.1402
      3 N         140.7665  141.0686  165.1949 N.ar    1  UNL1       -0.2089
      4 C         140.6921  139.9241  164.2282 C.ar    1  UNL1        0.2205
      5 N         141.4599  138.6639  164.4973 N.ar    1  UNL1       -0.2089
      6 C         142.3020  138.5482  165.7332 C.ar    1  UNL1        0.1402
      7 N         139.8499  140.0397  162.9923 N.pl3   1  UNL1       -0.2748
      8 C         138.6816  139.1205  162.7920 C.3     1  UNL1        0.1135
      9 C         137.8395  139.2361  161.5561 C.3     1  UNL1        0.0984
     10 C         137.3051  139.6948  160.2317 C.3     1  UNL1        0.0234
     11 C         138.1679  140.8230  159.7494 C.3     1  UNL1        0.0234
     12 C         139.2355  141.0617  160.7757 C.3     1  UNL1        0.0984
     13 C         140.1760  141.0747  161.9566 C.3     1  UNL1        0.1135
     14 N         139.0325  140.0809  161.8924 N.am    1  UNL1       -0.2459
     15 C         139.8746  139.9652  163.1283 C.2     1  UNL1        0.4051
     16 O         141.0429  140.8845  163.3285 O.2     1  UNL1       -0.2262
     17 O         139.5485  138.9303  164.1639 O.3     1  UNL1       -0.4252
     18 C         138.5236  139.2225  165.2194 C.3     1  UNL1        0.3125
     19 C         138.0714  138.1343  166.1475 C.3     1  UNL1        0.4382
     20 F         137.6192  137.0462  167.0756 F       1  UNL1       -0.1663
     21 F         138.7337  137.1123  165.2720 F       1  UNL1       -0.1663
     22 F         137.4091  139.1564  167.0231 F       1  UNL1       -0.1663
     23 O         143.2186  139.5771  167.9357 O.3     1  UNL1       -0.4675
     24 C         142.5654  139.4097  169.2756 C.3     1  UNL1        0.2329
     25 C         141.7693  141.7592  170.0476 C.ar    1  UNL1        0.0871
     26 C         140.6648  142.6845  170.4644 C.ar    1  UNL1        0.1089
     27 N         139.2516  142.1854  170.5259 N.ar    1  UNL1       -0.2416
     28 C         138.9430  140.7612  170.1708 C.ar    1  UNL1        0.0987
     29 C         140.0475  139.8359  169.7540 C.ar    1  UNL1        0.0207
     30 C         141.4607  140.3350  169.6924 C.ar    1  UNL1        0.0339
     31 N         144.5958  142.7573  169.9244 N.1     1  UNL1       -0.1908
     32 C         143.1826  142.2583  169.9860 C.1     1  UNL1        0.1018
@<TRIPOS>BOND
     1    31    32    3
     2    32    25    1
     3    25    26   ar
     4    26    27   ar
     5    27    28   ar
     6    28    29   ar
     7    29    30   ar
     8    30    24    1
     9    24    23    1
    10    23     1    1
    11     1     2   ar
    12     2     3   ar
    13     3     4   ar
    14     4     7    1
    15     7     8    1
    16     8     9    1
    17     9    10    1
    18    10    11    1
    19    11    12    1
    20    12    13    1
    21    12    14    1
    22    14    15   am
    23    15    16    2
    24    15    17    1
    25    17    18    1
    26    18    19    1
    27    19    20    1
    28    19    21    1
    29    19    22    1
    30     4     5   ar
    31     5     6   ar
    32    30    25   ar
    33     6     1   ar
    34    13     7    1
    35    14     9    1
@<TRIPOS>MOLECULE
*****
 32 35 0 0 0
SMALL
GASTEIGER

@<TRIPOS>ATOM
      1 C         140.9656  138.6303  163.0646 C.ar    1  UNL1        0.1773
      2 C         140.0394  139.8093  163.1134 C.ar    1  UNL1        0.1402
      3 N         139.8736  140.5804  164.3892 N.ar    1  UNL1       -0.2089
      4 C         140.6338  140.1726  165.6163 C.ar    1  UNL1        0.2205
      5 N         141.5599  138.9936  165.5675 N.ar    1  UNL1       -0.2089
      6 C         141.7258  138.2225  164.2917 C.ar    1  UNL1        0.1402
      7 N         140.4679  140.9437  166.8922 N.pl3   1  UNL1       -0.2748
      8 C         139.7921  140.3076  168.0706 C.3     1  UNL1        0.1135
      9 C         139.6262  141.0788  169.3464 C.3     1  UNL1        0.0984
     10 C         139.6800  142.1767  170.3670 C.3     1  UNL1        0.0234
     11 C         140.3647  143.3564  169.7430 C.3     1  UNL1        0.0234
     12 C         140.7340  142.9876  168.3367 C.3     1  UNL1        0.0984
     13 C         140.9779  142.3510  166.9897 C.3     1  UNL1        0.1135
     14 N         140.2776  141.5799  168.0916 N.am    1  UNL1       -0.2459
     15 C         140.4435  140.8087  166.8158 C.2     1  UNL1        0.4051
     16 O         141.1193  141.4449  165.6374 O.2     1  UNL1       -0.2262
     17 O         139.9334  139.4015  166.7183 O.3     1  UNL1       -0.4252
     18 C         138.4940  139.1471  166.3821 C.3     1  UNL1        0.3125
     19 C         137.9005  137.7877  166.6054 C.3     1  UNL1        0.4382
     20 F         137.3069  136.4284  166.8289 F       1  UNL1       -0.1663
     21 F         138.7312  137.2405  165.4829 F       1  UNL1       -0.1663
     22 F         137.0697  138.3351  167.7281 F       1  UNL1       -0.1663
     23 O         141.1315  137.8592  161.7888 O.3     1  UNL1       -0.4675
     24 C         142.5008  137.6418  161.2164 C.3     1  UNL1        0.2329
     25 C         143.6582  139.6114  159.9792 C.ar    1  UNL1        0.0871
     26 C         144.0534  140.2899  158.7012 C.ar    1  UNL1        0.1089
     27 N         143.6862  139.6772  157.3822 N.ar    1  UNL1       -0.2416
     28 C         142.9240  138.3860  157.3412 C.ar    1  UNL1        0.0987
     29 C         142.5288  137.7075  158.6192 C.ar    1  UNL1        0.0207
     30 C         142.8959  138.3202  159.9383 C.ar    1  UNL1        0.0339
     31 N         144.3925  140.8369  162.6172 N.1     1  UNL1       -0.1908
     32 C         144.0254  140.2242  161.2982 C.1     1  UNL1        0.1018
@<TRIPOS>BOND
     1    31    32    3
     2    32    25    1
     3    25    26   ar
     4    26    27   ar
     5    27    28   ar
     6    28    29   ar
     7    29    30   ar
     8    30    24    1
     9    24    23    1
    10    23     1    1
    11     1     2   ar
    12     2     3   ar
    13     3     4   ar
    14     4     7    1
    15     7     8    1
    16     8     9    1
    17     9    10    1
    18    10    11    1
    19    11    12    1
    20    12    13    1
    21    12    14    1
    22    14    15   am
    23    15    16    2
    24    15    17    1
    25    17    18    1
    26    18    19    1
    27    19    20    1
    28    19    21    1
    29    19    22    1
    30     4     5   ar
    31     5     6   ar
    32    30    25   ar
    33     6     1   ar
    34    13     7    1
    35    14     9    1
@<TRIPOS>MOLECULE
*****
 32 35 0 0 0
SMALL
GASTEIGER

@<TRIPOS>ATOM
      1 C         139.5293  139.8983  165.5921 C.ar    1  UNL1        0.1773
      2 C         138.1257  139.8307  165.0674 C.ar    1  UNL1        0.1402
      3 N         137.8436  140.1723  163.6344 N.ar    1  UNL1       -0.2089
      4 C         138.9649  140.5815  162.7261 C.ar    1  UNL1        0.2205
      5 N         140.3685  140.6492  163.2509 N.ar    1  UNL1       -0.2089
      6 C         140.6507  140.3075  164.6839 C.ar    1  UNL1        0.1402
      7 N         138.6828  140.9232  161.2930 N.pl3   1  UNL1       -0.2748
      8 C         138.7494  142.3500  160.8350 C.3     1  UNL1        0.1135
      9 C         138.4672  142.6916  159.4019 C.3     1  UNL1        0.0984
     10 C         138.1247  142.5683  157.9467 C.3     1  UNL1        0.0234
     11 C         137.8849  141.1180  157.6483 C.3     1  UNL1        0.0234
     12 C         138.0792  140.3449  158.9189 C.3     1  UNL1        0.0984
     13 C         138.3340  139.8380  160.3179 C.3     1  UNL1        0.1135
     14 N         138.4390  141.3175  160.0028 N.am    1  UNL1       -0.2459
     15 C         138.7212  140.9759  161.4358 C.2     1  UNL1        0.4051
     16 O         138.6546  139.5491  161.8938 O.2     1  UNL1       -0.2262
     17 O         139.0700  142.0611  162.4109 O.3     1  UNL1       -0.4252
     18 C         137.9848  142.8950  163.0246 C.3     1  UNL1        0.3125
     19 C         138.3383  144.0425  163.9237 C.3     1  UNL1        0.4382
     20 F         138.6919  145.1899  164.8228 F       1  UNL1       -0.1663
     21 F         138.0678  145.0032  162.8040 F       1  UNL1       -0.1663
     22 F         138.6089  143.0817  165.0434 F       1  UNL1       -0.1663
     23 O         139.8115  139.5567  167.0252 O.3     1  UNL1       -0.4675
     24 C         141.0347  140.1033  167.6998 C.3     1  UNL1        0.2329
     25 C         141.6147  140.3153  170.2234 C.ar    1  UNL1        0.0871
     26 C         141.4891  141.0440  171.5284 C.ar    1  UNL1        0.1089
     27 N         140.6579  142.2897  171.6148 N.ar    1  UNL1       -0.2416
     28 C         139.9523  142.8065  170.3962 C.ar    1  UNL1        0.0987
     29 C         140.0779  142.0778  169.0912 C.ar    1  UNL1        0.0207
     30 C         140.9091  140.8321  169.0048 C.ar    1  UNL1        0.0339
     31 N         143.2771  137.8239  170.0505 N.1     1  UNL1       -0.1908
     32 C         142.4459  139.0696  170.1369 C.1     1  UNL1        0.1018
@<TRIPOS>BOND
     1    31    32    3
     2    32    25    1
     3    25    26   ar
     4    26    27   ar
     5    27    28   ar
     6    28    29   ar
     7    29    30   ar
     8    30    24    1
     9    24    23    1
    10    23     1    1
    11     1     2   ar
    12     2     3   ar
    13     3     4   ar
    14     4     7    1
    15     7     8    1
    16     8     9    1
    17     9    10    1
    18    10    11    1
    19    11    12    1
    20    12    13    1
    21    12    14    1
    22    14    15   am
    23    15    16    2
    24    15    17    1
    25    17    18    1
    26    18    19    1
    27    19    20    1
    28    19    21    1
    29    19    22    1
    30     4     5   ar
    31     5     6   ar
    32    30    25   ar
    33     6     1   ar
    34    13     7    1
    35    14     9    1
@<TRIPOS>MOLECULE
*****
 32 35 0 0 0
SMALL
GASTEIGER

@<TRIPOS>ATOM
      1 C         143.0553  142.5239  165.4513 C.ar    1  UNL1        0.1773
      2 C         142.2669  141.6357  164.5351 C.ar    1  UNL1        0.1402
      3 N         141.9108  142.1074  163.1565 N.ar    1  UNL1       -0.2089
      4 C         142.3429  143.4674  162.6941 C.ar    1  UNL1        0.2205
      5 N         143.1313  144.3556  163.6104 N.ar    1  UNL1       -0.2089
      6 C         143.4875  143.8839  164.9889 C.ar    1  UNL1        0.1402
      7 N         141.9867  143.9391  161.3154 N.pl3   1  UNL1       -0.2748
      8 C         140.9150  144.9720  161.1297 C.3     1  UNL1        0.1135
      9 C         140.5588  145.4437  159.7511 C.3     1  UNL1        0.0984
     10 C         140.5389  145.6079  158.2603 C.3     1  UNL1        0.0234
     11 C         141.5708  144.6876  157.6788 C.3     1  UNL1        0.0234
     12 C         142.2285  143.9545  158.8102 C.3     1  UNL1        0.0984
     13 C         142.7023  143.3779  160.1225 C.3     1  UNL1        0.1135
     14 N         141.6030  144.4219  160.0910 N.am    1  UNL1       -0.2459
     15 C         141.9592  143.9502  161.4697 C.2     1  UNL1        0.4051
     16 O         143.0309  142.9173  161.6554 O.2     1  UNL1       -0.2262
     17 O         141.2436  144.5113  162.6626 O.3     1  UNL1       -0.4252
     18 C         139.9156  143.9482  163.0739 C.3     1  UNL1        0.3125
     19 C         139.1479  144.5809  164.1965 C.3     1  UNL1        0.4382
     20 F         138.3802  145.2135  165.3193 F       1  UNL1       -0.1663
     21 F         138.0458  144.9358  163.2430 F       1  UNL1       -0.1663
     22 F         140.2500  144.2258  165.1501 F       1  UNL1       -0.1663
     23 O         143.4115  142.0523  166.8299 O.3     1  UNL1       -0.4675
     24 C         142.4997  141.1110  167.5596 C.3     1  UNL1        0.2329
     25 C         141.7056  140.7334  170.0044 C.ar    1  UNL1        0.0871
     26 C         140.9525  141.2045  171.2130 C.ar    1  UNL1        0.1089
     27 N         140.2403  142.5244  171.1855 N.ar    1  UNL1       -0.2416
     28 C         140.2813  143.3731  169.9494 C.ar    1  UNL1        0.0987
     29 C         141.0343  142.9020  168.7408 C.ar    1  UNL1        0.0207
     30 C         141.7466  141.5821  168.7683 C.ar    1  UNL1        0.0339
     31 N         143.1301  138.0937  170.0594 N.1     1  UNL1       -0.1908
     32 C         142.4178  139.4136  170.0319 C.1     1  UNL1        0.1018
@<TRIPOS>BOND
     1    31    32    3
     2    32    25    1
     3    25    26   ar
     4    26    27   ar
     5    27    28   ar
     6    28    29   ar
     7    29    30   ar
     8    30    24    1
     9    24    23    1
    10    23     1    1
    11     1     2   ar
    12     2     3   ar
    13     3     4   ar
    14     4     7    1
    15     7     8    1
    16     8     9    1
    17     9    10    1
    18    10    11    1
    19    11    12    1
    20    12    13    1
    21    12    14    1
    22    14    15   am
    23    15    16    2
    24    15    17    1
    25    17    18    1
    26    18    19    1
    27    19    20    1
    28    19    21    1
    29    19    22    1
    30     4     5   ar
    31     5     6   ar
    32    30    25   ar
    33     6     1   ar
    34    13     7    1
    35    14     9    1
@<TRIPOS>MOLECULE
*****
 32 35 0 0 0
SMALL
GASTEIGER

@<TRIPOS>ATOM
      1 C         139.6652  140.8876  165.6321 C.ar    1  UNL1        0.1773
      2 C         138.4925  140.8496  164.6976 C.ar    1  UNL1        0.1402
      3 N         138.5926  141.4848  163.3425 N.ar    1  UNL1       -0.2089
      4 C         139.8653  142.1581  162.9218 C.ar    1  UNL1        0.2205
      5 N         141.0380  142.1961  163.8564 N.ar    1  UNL1       -0.2089
      6 C         140.9379  141.5609  165.2115 C.ar    1  UNL1        0.1402
      7 N         139.9653  142.7933  161.5666 N.pl3   1  UNL1       -0.2748
      8 C         140.0806  144.2838  161.4436 C.3     1  UNL1        0.1135
      9 C         140.1807  144.9190  160.0884 C.3     1  UNL1        0.0984
     10 C         140.2525  145.1046  158.6017 C.3     1  UNL1        0.0234
     11 C         140.1771  143.7502  157.9613 C.3     1  UNL1        0.0234
     12 C         140.0587  142.7276  159.0523 C.3     1  UNL1        0.0984
     13 C         139.9501  141.9380  160.3344 C.3     1  UNL1        0.1135
     14 N         140.0609  143.4499  160.3669 N.am    1  UNL1       -0.2459
     15 C         139.9609  142.8147  161.7221 C.2     1  UNL1        0.4051
     16 O         139.8456  141.3243  161.8451 O.2     1  UNL1       -0.2262
     17 O         139.9761  143.6701  162.9543 O.3     1  UNL1       -0.4252
     18 C         138.6987  144.2607  163.4730 C.3     1  UNL1        0.3125
     19 C         138.6298  144.7830  164.8775 C.3     1  UNL1        0.4382
     20 F         138.5611  145.3053  166.2820 F       1  UNL1       -0.1663
     21 F         137.1867  144.3816  164.9561 F       1  UNL1       -0.1663
     22 F         140.0730  145.1843  164.7989 F       1  UNL1       -0.1663
     23 O         139.5653  140.2524  166.9873 O.3     1  UNL1       -0.4675
     24 C         140.8107  139.9349  167.7606 C.3     1  UNL1        0.2329
     25 C         140.4706  141.1120  170.0516 C.ar    1  UNL1        0.0871
     26 C         140.9558  142.0552  171.1122 C.ar    1  UNL1        0.1089
     27 N         142.2666  142.7645  170.9423 N.ar    1  UNL1       -0.2416
     28 C         143.0920  142.5306  169.7119 C.ar    1  UNL1        0.0987
     29 C         142.6068  141.5875  168.6513 C.ar    1  UNL1        0.0207
     30 C         141.2960  140.8782  168.8212 C.ar    1  UNL1        0.0339
     31 N         137.8491  139.6934  170.3913 N.1     1  UNL1       -0.1908
     32 C         139.1599  140.4027  170.2214 C.1     1  UNL1        0.1018
@<TRIPOS>BOND
     1    31    32    3
     2    32    25    1
     3    25    26   ar
     4    26    27   ar
     5    27    28   ar
     6    28    29   ar
     7    29    30   ar
     8    30    24    1
     9    24    23    1
    10    23     1    1
    11     1     2   ar
    12     2     3   ar
    13     3     4   ar
    14     4     7    1
    15     7     8    1
    16     8     9    1
    17     9    10    1
    18    10    11    1
    19    11    12    1
    20    12    13    1
    21    12    14    1
    22    14    15   am
    23    15    16    2
    24    15    17    1
    25    17    18    1
    26    18    19    1
    27    19    20    1
    28    19    21    1
    29    19    22    1
    30     4     5   ar
    31     5     6   ar
    32    30    25   ar
    33     6     1   ar
    34    13     7    1
    35    14     9    1
@<TRIPOS>MOLECULE
*****
 32 35 0 0 0
SMALL
GASTEIGER

@<TRIPOS>ATOM
      1 C         138.4391  140.7584  164.2322 C.ar    1  UNL1        0.1773
      2 C         139.8666  141.0368  163.8649 C.ar    1  UNL1        0.1402
      3 N         140.1824  141.8384  162.6371 N.ar    1  UNL1       -0.2089
      4 C         139.0709  142.3617  161.7766 C.ar    1  UNL1        0.2205
      5 N         137.6434  142.0833  162.1438 N.ar    1  UNL1       -0.2089
      6 C         137.3276  141.2817  163.3716 C.ar    1  UNL1        0.1402
      7 N         139.3868  143.1633  160.5487 N.pl3   1  UNL1       -0.2748
      8 C         140.0358  144.5094  160.6782 C.3     1  UNL1        0.1135
      9 C         140.3516  145.3110  159.4504 C.3     1  UNL1        0.0984
     10 C         140.4768  145.7361  158.0173 C.3     1  UNL1        0.0234
     11 C         139.9097  144.6446  157.1589 C.3     1  UNL1        0.0234
     12 C         139.4341  143.5449  158.0613 C.3     1  UNL1        0.0984
     13 C         139.0536  142.6189  159.1913 C.3     1  UNL1        0.1135
     14 N         139.7072  143.9568  159.4776 N.am    1  UNL1       -0.2459
     15 C         139.3914  143.1552  160.7054 C.2     1  UNL1        0.4051
     16 O         138.7423  141.8091  160.5759 O.2     1  UNL1       -0.2262
     17 O         139.7246  143.6997  162.0628 O.3     1  UNL1       -0.4252
     18 C         138.7658  144.6204  162.7576 C.3     1  UNL1        0.3125
     19 C         138.8756  144.8402  164.2373 C.3     1  UNL1        0.4382
     20 F         138.9854  145.0600  165.7171 F       1  UNL1       -0.1663
     21 F         140.3165  145.2234  164.0735 F       1  UNL1       -0.1663
     22 F         137.4347  144.4570  164.4011 F       1  UNL1       -0.1663
     23 O         138.1232  139.9568  165.4600 O.3     1  UNL1       -0.4675
     24 C         139.1814  139.0999  166.0893 C.3     1  UNL1        0.2329
     25 C         141.4823  139.6417  167.1674 C.ar    1  UNL1        0.0871
     26 C         142.2852  140.1668  168.3203 C.ar    1  UNL1        0.1089
     27 N         141.5901  140.6755  169.5484 N.ar    1  UNL1       -0.2416
     28 C         140.0921  140.6590  169.6233 C.ar    1  UNL1        0.0987
     29 C         139.2892  140.1338  168.4704 C.ar    1  UNL1        0.0207
     30 C         139.9843  139.6251  167.2423 C.ar    1  UNL1        0.0339
     31 N         142.8726  138.6243  164.7113 N.1     1  UNL1       -0.1908
     32 C         142.1775  139.1330  165.9393 C.1     1  UNL1        0.1018
@<TRIPOS>BOND
     1    31    32    3
     2    32    25    1
     3    25    26   ar
     4    26    27   ar
     5    27    28   ar
     6    28    29   ar
     7    29    30   ar
     8    30    24    1
     9    24    23    1
    10    23     1    1
    11     1     2   ar
    12     2     3   ar
    13     3     4   ar
    14     4     7    1
    15     7     8    1
    16     8     9    1
    17     9    10    1
    18    10    11    1
    19    11    12    1
    20    12    13    1
    21    12    14    1
    22    14    15   am
    23    15    16    2
    24    15    17    1
    25    17    18    1
    26    18    19    1
    27    19    20    1
    28    19    21    1
    29    19    22    1
    30     4     5   ar
    31     5     6   ar
    32    30    25   ar
    33     6     1   ar
    34    13     7    1
    35    14     9    1
