@<TRIPOS>MOLECULE
*****
 37 40 0 0 0
SMALL
GASTEIGER

@<TRIPOS>ATOM
      1 C         139.2013  141.6237  160.8006 C.2     1  UNL1        0.1397
      2 C         139.3576  141.0693  159.4156 C.2     1  UNL1        0.1355
      3 N         139.5560  141.9976  158.2542 N.pl3   1  UNL1       -0.1998
      4 C         139.5983  143.4802  158.4777 C.2     1  UNL1        0.3442
      5 N         139.4420  144.0346  159.8627 N.2     1  UNL1       -0.0580
      6 C         139.2436  143.1063  161.0242 C.3     1  UNL1        0.2692
      7 H         139.6586  141.6338  157.3451 H       1  UNL1        0.2983
      8 C         139.0873  143.6607  162.4092 C.ar    1  UNL1        0.0371
      9 C         137.7181  143.8422  162.9944 C.ar    1  UNL1        0.0030
     10 C         137.5619  144.3965  164.3793 C.ar    1  UNL1        0.0295
     11 C         138.7748  144.7694  165.1793 C.ar    1  UNL1        0.1406
     12 F         138.6185  145.3238  166.5642 F       1  UNL1       -0.2042
     13 C         140.1440  144.5880  164.5941 C.ar    1  UNL1        0.0362
     14 C         140.3002  144.0336  163.2090 C.ar    1  UNL1        0.0372
     15 BR        141.6694  143.8521  162.6239 Br      1  UNL1       -0.0491
     16 C         139.7968  144.4085  157.3163 C.ar    1  UNL1        0.1931
     17 N         139.5078  144.0956  155.8781 N.ar    1  UNL1       -0.2297
     18 C         139.8515  145.3064  155.0621 C.ar    1  UNL1        0.1067
     19 C         140.3529  146.3677  155.9960 C.ar    1  UNL1        0.0577
     20 S         140.3190  145.8128  157.3892 S.2     1  UNL1       -0.0586
     21 C         139.0029  140.6954  161.9620 C.2     1  UNL1        0.3447
     22 O         137.6507  140.1020  162.2253 O.2     1  UNL1       -0.2450
     23 O         140.1566  140.3605  162.8601 O.3     1  UNL1       -0.4455
     24 C         139.1315  141.0369  165.1496 C.3     1  UNL1        0.0513
     25 C         139.9173  140.0716  164.3125 C.3     1  UNL1        0.2089
     26 C         139.3153  139.5867  159.1919 C.3     1  UNL1        0.1405
     27 N         140.5914  138.8180  159.0167 N.3     1  UNL1       -0.2618
     28 C         140.9164  138.1962  157.6909 C.3     1  UNL1        0.1050
     29 C         142.1926  137.4274  157.5158 C.3     1  UNL1        0.1594
     30 O         143.1436  137.2805  158.6663 O.3     1  UNL1       -0.3533
     31 C         142.8186  137.9023  159.9921 C.3     1  UNL1        0.1316
     32 C         141.5425  138.6710  160.1674 C.3     1  UNL1        0.1024
     33 C         143.7696  137.7554  161.1427 C.3     1  UNL1        0.0369
     34 C         143.4782  138.4345  162.4481 C.3     1  UNL1        0.0442
     35 C         144.3866  139.5179  162.9492 C.2     1  UNL1        0.0504
     36 O         144.5916  140.7609  162.1351 O.co2   1  UNL1       -0.5492
     37 O         145.0900  139.3581  164.2643 O.co2   1  UNL1       -0.5492
@<TRIPOS>UNITY_ATOM_ATTR
36 1
charge -1
@<TRIPOS>BOND
     1    24    25    1
     2    25    23    1
     3    23    21    1
     4    21    22    2
     5    21     1    1
     6     1     2    2
     7     2    26    1
     8    26    27    1
     9    27    28    1
    10    28    29    1
    11    29    30    1
    12    30    31    1
    13    31    33    1
    14    33    34    1
    15    34    35    1
    16    35    36   ar
    17    35    37   ar
    18    31    32    1
    19     2     3    1
    20     3     4    1
    21     4    16    1
    22    16    17   ar
    23    17    18   ar
    24    18    19   ar
    25    19    20   ar
    26     4     5    2
    27     5     6    1
    28     6     8    1
    29     8     9   ar
    30     9    10   ar
    31    10    11   ar
    32    11    12    1
    33    11    13   ar
    34    13    14   ar
    35    14    15    1
    36     6     1    1
    37    14     8   ar
    38    32    27    1
    39    20    16   ar
    40     3     7    1
@<TRIPOS>MOLECULE
*****
 37 40 0 0 0
SMALL
GASTEIGER

@<TRIPOS>ATOM
      1 C         142.3283  140.3176  161.0614 C.2     1  UNL1        0.1397
      2 C         143.0778  140.8523  159.8772 C.2     1  UNL1        0.1355
      3 N         143.2556  140.0008  158.6552 N.pl3   1  UNL1       -0.1998
      4 C         142.6840  138.6146  158.6174 C.2     1  UNL1        0.3442
      5 N         141.9346  138.0798  159.8016 N.2     1  UNL1       -0.0580
      6 C         141.7567  138.9313  161.0236 C.3     1  UNL1        0.2692
      7 H         143.7475  140.3518  157.8780 H       1  UNL1        0.2983
      8 C         141.0073  138.3964  162.2078 C.ar    1  UNL1        0.0371
      9 C         141.7535  137.7590  163.3422 C.ar    1  UNL1        0.0030
     10 C         141.0041  137.2242  164.5264 C.ar    1  UNL1        0.0295
     11 C         139.5084  137.3268  164.5762 C.ar    1  UNL1        0.1406
     12 F         138.7590  136.7920  165.7604 F       1  UNL1       -0.2042
     13 C         138.7621  137.9642  163.4418 C.ar    1  UNL1        0.0362
     14 C         139.5116  138.4991  162.2576 C.ar    1  UNL1        0.0372
     15 BR        138.7654  139.1365  161.1232 Br      1  UNL1       -0.0491
     16 C         142.8619  137.7630  157.3954 C.ar    1  UNL1        0.1931
     17 N         142.8883  136.2637  157.3617 N.ar    1  UNL1       -0.2297
     18 C         143.0873  135.8353  155.9380 C.ar    1  UNL1        0.1067
     19 C         143.1838  137.0700  155.0917 C.ar    1  UNL1        0.0577
     20 S         143.0445  138.2614  155.9924 S.2     1  UNL1       -0.0586
     21 C         142.1505  141.1691  162.2834 C.2     1  UNL1        0.3447
     22 O         140.8241  141.8108  162.5638 O.2     1  UNL1       -0.2450
     23 O         143.2991  141.3788  163.2250 O.3     1  UNL1       -0.4455
     24 C         144.8146  139.5537  164.2844 C.3     1  UNL1        0.0513
     25 C         144.5020  140.4858  163.1514 C.3     1  UNL1        0.2089
     26 C         143.6494  142.2387  159.9150 C.3     1  UNL1        0.1405
     27 N         142.8343  143.3996  159.4274 N.3     1  UNL1       -0.2618
     28 C         142.9830  143.8794  158.0140 C.3     1  UNL1        0.1050
     29 C         142.1678  145.0404  157.5264 C.3     1  UNL1        0.1594
     30 O         141.2040  145.7215  158.4522 O.3     1  UNL1       -0.3533
     31 C         141.0552  145.2416  159.8656 C.3     1  UNL1        0.1316
     32 C         141.8703  144.0807  160.3532 C.3     1  UNL1        0.1024
     33 C         140.0913  145.9227  160.7913 C.3     1  UNL1        0.0369
     34 C         140.2019  145.7168  162.2731 C.3     1  UNL1        0.0442
     35 C         139.1244  144.9780  163.0101 C.2     1  UNL1        0.0504
     36 O         138.0448  144.2690  162.2474 O.co2   1  UNL1       -0.5492
     37 O         139.1267  144.9481  164.5097 O.co2   1  UNL1       -0.5492
@<TRIPOS>UNITY_ATOM_ATTR
36 1
charge -1
@<TRIPOS>BOND
     1    24    25    1
     2    25    23    1
     3    23    21    1
     4    21    22    2
     5    21     1    1
     6     1     2    2
     7     2    26    1
     8    26    27    1
     9    27    28    1
    10    28    29    1
    11    29    30    1
    12    30    31    1
    13    31    33    1
    14    33    34    1
    15    34    35    1
    16    35    36   ar
    17    35    37   ar
    18    31    32    1
    19     2     3    1
    20     3     4    1
    21     4    16    1
    22    16    17   ar
    23    17    18   ar
    24    18    19   ar
    25    19    20   ar
    26     4     5    2
    27     5     6    1
    28     6     8    1
    29     8     9   ar
    30     9    10   ar
    31    10    11   ar
    32    11    12    1
    33    11    13   ar
    34    13    14   ar
    35    14    15    1
    36     6     1    1
    37    14     8   ar
    38    32    27    1
    39    20    16   ar
    40     3     7    1
@<TRIPOS>MOLECULE
*****
 37 40 0 0 0
SMALL
GASTEIGER

@<TRIPOS>ATOM
      1 C         141.9429  140.0590  163.9685 C.2     1  UNL1        0.1397
      2 C         142.3427  140.3479  162.5520 C.2     1  UNL1        0.1355
      3 N         141.9233  141.6329  161.9015 N.pl3   1  UNL1       -0.1998
      4 C         141.1041  142.6288  162.6676 C.2     1  UNL1        0.3442
      5 N         140.7043  142.3399  164.0842 N.2     1  UNL1       -0.0580
      6 C         141.1237  141.0550  164.7346 C.3     1  UNL1        0.2692
      7 H         142.1857  141.8225  160.9718 H       1  UNL1        0.2983
      8 C         140.7239  140.7661  166.1513 C.ar    1  UNL1        0.0371
      9 C         139.4661  139.9992  166.4340 C.ar    1  UNL1        0.0030
     10 C         139.0663  139.7103  167.8505 C.ar    1  UNL1        0.0295
     11 C         139.9242  140.1882  168.9844 C.ar    1  UNL1        0.1406
     12 F         139.5244  139.8993  170.4009 F       1  UNL1       -0.2042
     13 C         141.1820  140.9551  168.7017 C.ar    1  UNL1        0.0362
     14 C         141.5818  141.2440  167.2850 C.ar    1  UNL1        0.0372
     15 BR        142.8396  142.0109  167.0023 Br      1  UNL1       -0.0491
     16 C         140.6847  143.9138  162.0172 C.ar    1  UNL1        0.1931
     17 N         140.8233  144.2518  160.5624 N.ar    1  UNL1       -0.2297
     18 C         140.2773  145.6332  160.3534 C.ar    1  UNL1        0.1067
     19 C         139.8013  146.1489  161.6791 C.ar    1  UNL1        0.0577
     20 S         140.0531  145.0863  162.7073 S.2     1  UNL1       -0.0586
     21 C         142.3623  138.7741  164.6190 C.2     1  UNL1        0.3447
     22 O         143.6702  138.6950  165.3491 O.2     1  UNL1       -0.2450
     23 O         141.4738  137.5682  164.5393 O.3     1  UNL1       -0.4455
     24 C         139.0347  137.6890  163.6524 C.3     1  UNL1        0.0513
     25 C         140.4931  137.4323  163.4125 C.3     1  UNL1        0.2089
     26 C         143.1619  139.3519  161.7858 C.3     1  UNL1        0.1405
     27 N         143.1892  139.3980  160.2868 N.3     1  UNL1       -0.2618
     28 C         143.9677  140.4701  159.5835 C.3     1  UNL1        0.1050
     29 C         143.9950  140.5161  158.0844 C.3     1  UNL1        0.1594
     30 O         143.2439  139.4901  157.2887 O.3     1  UNL1       -0.3533
     31 C         142.4655  138.4180  157.9920 C.3     1  UNL1        0.1316
     32 C         142.4382  138.3719  159.4911 C.3     1  UNL1        0.1024
     33 C         141.7145  137.3920  157.1964 C.3     1  UNL1        0.0369
     34 C         142.3182  136.8226  155.9468 C.3     1  UNL1        0.0442
     35 C         143.7134  136.2724  155.9712 C.2     1  UNL1        0.0504
     36 O         144.8635  137.1241  155.5217 O.co2   1  UNL1       -0.5492
     37 O         143.9585  134.8706  156.4452 O.co2   1  UNL1       -0.5492
@<TRIPOS>UNITY_ATOM_ATTR
36 1
charge -1
@<TRIPOS>BOND
     1    24    25    1
     2    25    23    1
     3    23    21    1
     4    21    22    2
     5    21     1    1
     6     1     2    2
     7     2    26    1
     8    26    27    1
     9    27    28    1
    10    28    29    1
    11    29    30    1
    12    30    31    1
    13    31    33    1
    14    33    34    1
    15    34    35    1
    16    35    36   ar
    17    35    37   ar
    18    31    32    1
    19     2     3    1
    20     3     4    1
    21     4    16    1
    22    16    17   ar
    23    17    18   ar
    24    18    19   ar
    25    19    20   ar
    26     4     5    2
    27     5     6    1
    28     6     8    1
    29     8     9   ar
    30     9    10   ar
    31    10    11   ar
    32    11    12    1
    33    11    13   ar
    34    13    14   ar
    35    14    15    1
    36     6     1    1
    37    14     8   ar
    38    32    27    1
    39    20    16   ar
    40     3     7    1
@<TRIPOS>MOLECULE
*****
 37 40 0 0 0
SMALL
GASTEIGER

@<TRIPOS>ATOM
      1 C         140.1272  140.0346  159.9081 C.2     1  UNL1        0.1397
      2 C         138.7060  139.6077  160.1264 C.2     1  UNL1        0.1355
      3 N         137.6518  139.9684  159.1221 N.pl3   1  UNL1       -0.1998
      4 C         138.0189  140.7560  157.8995 C.2     1  UNL1        0.3442
      5 N         139.4401  141.1830  157.6812 N.2     1  UNL1       -0.0580
      6 C         140.4943  140.8223  158.6855 C.3     1  UNL1        0.2692
      7 H         136.7190  139.6882  159.2654 H       1  UNL1        0.2983
      8 C         141.9156  141.2492  158.4671 C.ar    1  UNL1        0.0371
      9 C         142.8796  140.3256  157.7832 C.ar    1  UNL1        0.0030
     10 C         144.3008  140.7525  157.5648 C.ar    1  UNL1        0.0295
     11 C         144.7582  142.1031  158.0303 C.ar    1  UNL1        0.1406
     12 F         146.1795  142.5300  157.8120 F       1  UNL1       -0.2042
     13 C         143.7943  143.0268  158.7142 C.ar    1  UNL1        0.0362
     14 C         142.3730  142.5998  158.9326 C.ar    1  UNL1        0.0372
     15 BR        141.4091  143.5235  159.6165 Br      1  UNL1       -0.0491
     16 C         136.9647  141.1167  156.8952 C.ar    1  UNL1        0.1931
     17 N         135.6578  140.4081  156.6956 N.ar    1  UNL1       -0.2297
     18 C         134.9177  141.1028  155.5912 C.ar    1  UNL1        0.1067
     19 C         135.7672  142.2408  155.1082 C.ar    1  UNL1        0.0577
     20 S         137.0323  142.2494  155.9141 S.2     1  UNL1       -0.0586
     21 C         141.1814  139.6739  160.9124 C.2     1  UNL1        0.3447
     22 O         141.8014  138.3082  160.8913 O.2     1  UNL1       -0.2450
     23 O         141.6156  140.6789  161.9378 O.3     1  UNL1       -0.4455
     24 C         144.1832  140.6712  161.5410 C.3     1  UNL1        0.0513
     25 C         143.0137  140.6412  162.4799 C.3     1  UNL1        0.2089
     26 C         138.3388  138.8200  161.3491 C.3     1  UNL1        0.1405
     27 N         138.3321  139.4832  162.6944 N.3     1  UNL1       -0.2618
     28 C         138.6560  138.6879  163.9243 C.3     1  UNL1        0.1050
     29 C         138.6492  139.3512  165.2697 C.3     1  UNL1        0.1594
     30 O         138.3186  140.8097  165.3852 O.3     1  UNL1       -0.3533
     31 C         137.9947  141.6050  164.1554 C.3     1  UNL1        0.1316
     32 C         138.0014  140.9418  162.8100 C.3     1  UNL1        0.1024
     33 C         137.6641  143.0635  164.2709 C.3     1  UNL1        0.0369
     34 C         137.7649  143.9530  163.0672 C.3     1  UNL1        0.0442
     35 C         138.9256  144.8923  162.9239 C.2     1  UNL1        0.0504
     36 O         140.0285  144.8823  163.9406 O.co2   1  UNL1       -0.5492
     37 O         138.9834  145.8416  161.7640 O.co2   1  UNL1       -0.5492
@<TRIPOS>UNITY_ATOM_ATTR
36 1
charge -1
@<TRIPOS>BOND
     1    24    25    1
     2    25    23    1
     3    23    21    1
     4    21    22    2
     5    21     1    1
     6     1     2    2
     7     2    26    1
     8    26    27    1
     9    27    28    1
    10    28    29    1
    11    29    30    1
    12    30    31    1
    13    31    33    1
    14    33    34    1
    15    34    35    1
    16    35    36   ar
    17    35    37   ar
    18    31    32    1
    19     2     3    1
    20     3     4    1
    21     4    16    1
    22    16    17   ar
    23    17    18   ar
    24    18    19   ar
    25    19    20   ar
    26     4     5    2
    27     5     6    1
    28     6     8    1
    29     8     9   ar
    30     9    10   ar
    31    10    11   ar
    32    11    12    1
    33    11    13   ar
    34    13    14   ar
    35    14    15    1
    36     6     1    1
    37    14     8   ar
    38    32    27    1
    39    20    16   ar
    40     3     7    1
@<TRIPOS>MOLECULE
*****
 37 40 0 0 0
SMALL
GASTEIGER

@<TRIPOS>ATOM
      1 C         140.1077  142.8155  160.1233 C.2     1  UNL1        0.1397
      2 C         139.2697  142.5411  158.9099 C.2     1  UNL1        0.1355
      3 N         139.2802  143.5021  157.7582 N.pl3   1  UNL1       -0.1998
      4 C         140.1287  144.7374  157.8198 C.2     1  UNL1        0.3442
      5 N         140.9668  145.0118  159.0332 N.2     1  UNL1       -0.0580
      6 C         140.9563  144.0509  160.1849 C.3     1  UNL1        0.2692
      7 H         138.7302  143.3219  156.9618 H       1  UNL1        0.2983
      8 C         141.7944  144.3253  161.3984 C.ar    1  UNL1        0.0371
      9 C         141.2496  145.1722  162.5102 C.ar    1  UNL1        0.0030
     10 C         142.0876  145.4466  163.7236 C.ar    1  UNL1        0.0295
     11 C         143.4705  144.8743  163.8252 C.ar    1  UNL1        0.1406
     12 F         144.3085  145.1488  165.0386 F       1  UNL1       -0.2042
     13 C         144.0152  144.0275  162.7134 C.ar    1  UNL1        0.0362
     14 C         143.1771  143.7530  161.4999 C.ar    1  UNL1        0.0372
     15 BR        143.7219  142.9062  160.3881 Br      1  UNL1       -0.0491
     16 C         140.1392  145.6984  156.6681 C.ar    1  UNL1        0.1931
     17 N         139.3536  146.9728  156.5760 N.ar    1  UNL1       -0.2297
     18 C         139.6660  147.6157  155.2572 C.ar    1  UNL1        0.1067
     19 C         140.6448  146.7385  154.5343 C.ar    1  UNL1        0.0577
     20 S         140.9372  145.5536  155.4063 S.2     1  UNL1       -0.0586
     21 C         140.0972  141.8546  161.2750 C.2     1  UNL1        0.3447
     22 O         140.9947  140.6528  161.2573 O.2     1  UNL1       -0.2450
     23 O         139.1893  142.0954  162.4444 O.3     1  UNL1       -0.4455
     24 C         137.7555  144.0757  163.3236 C.3     1  UNL1        0.0513
     25 C         138.0072  143.0076  162.3009 C.3     1  UNL1        0.2089
     26 C         138.4211  141.3057  158.8482 C.3     1  UNL1        0.1405
     27 N         137.9248  140.8020  157.5254 N.3     1  UNL1       -0.2618
     28 C         138.8481  140.0463  156.6163 C.3     1  UNL1        0.1050
     29 C         138.3517  139.5426  155.2933 C.3     1  UNL1        0.1594
     30 O         136.9321  139.7947  154.8796 O.3     1  UNL1       -0.3533
     31 C         136.0089  140.5504  155.7887 C.3     1  UNL1        0.1316
     32 C         136.5052  141.0541  157.1116 C.3     1  UNL1        0.1024
     33 C         134.5893  140.8024  155.3750 C.3     1  UNL1        0.0369
     34 C         133.5228  139.8004  155.7047 C.3     1  UNL1        0.0442
     35 C         133.0008  139.6946  157.1069 C.2     1  UNL1        0.0504
     36 O         133.8438  139.0640  158.1754 O.co2   1  UNL1       -0.5492
     37 O         131.6359  140.2194  157.4407 O.co2   1  UNL1       -0.5492
@<TRIPOS>UNITY_ATOM_ATTR
36 1
charge -1
@<TRIPOS>BOND
     1    24    25    1
     2    25    23    1
     3    23    21    1
     4    21    22    2
     5    21     1    1
     6     1     2    2
     7     2    26    1
     8    26    27    1
     9    27    28    1
    10    28    29    1
    11    29    30    1
    12    30    31    1
    13    31    33    1
    14    33    34    1
    15    34    35    1
    16    35    36   ar
    17    35    37   ar
    18    31    32    1
    19     2     3    1
    20     3     4    1
    21     4    16    1
    22    16    17   ar
    23    17    18   ar
    24    18    19   ar
    25    19    20   ar
    26     4     5    2
    27     5     6    1
    28     6     8    1
    29     8     9   ar
    30     9    10   ar
    31    10    11   ar
    32    11    12    1
    33    11    13   ar
    34    13    14   ar
    35    14    15    1
    36     6     1    1
    37    14     8   ar
    38    32    27    1
    39    20    16   ar
    40     3     7    1
@<TRIPOS>MOLECULE
*****
 37 40 0 0 0
SMALL
GASTEIGER

@<TRIPOS>ATOM
      1 C         139.2432  140.1446  167.9202 C.2     1  UNL1        0.1397
      2 C         138.0858  139.2662  167.5476 C.2     1  UNL1        0.1355
      3 N         137.2431  138.6411  168.6195 N.pl3   1  UNL1       -0.1998
      4 C         137.5577  138.8944  170.0641 C.2     1  UNL1        0.3442
      5 N         138.7151  139.7728  170.4367 N.2     1  UNL1       -0.0580
      6 C         139.5578  140.3979  169.3647 C.3     1  UNL1        0.2692
      7 H         136.4835  138.0646  168.3750 H       1  UNL1        0.2983
      8 C         140.7153  141.2763  169.7374 C.ar    1  UNL1        0.0371
      9 C         140.5203  142.7577  169.8701 C.ar    1  UNL1        0.0030
     10 C         141.6776  143.6361  170.2427 C.ar    1  UNL1        0.0295
     11 C         143.0300  143.0332  170.4827 C.ar    1  UNL1        0.1406
     12 F         144.1874  143.9116  170.8553 F       1  UNL1       -0.2042
     13 C         143.2250  141.5518  170.3500 C.ar    1  UNL1        0.0362
     14 C         142.0676  140.6734  169.9774 C.ar    1  UNL1        0.0372
     15 BR        142.2626  139.1921  169.8447 Br      1  UNL1       -0.0491
     16 C         136.7150  138.2693  171.1360 C.ar    1  UNL1        0.1931
     17 N         136.9317  136.9194  171.7530 N.ar    1  UNL1       -0.2297
     18 C         135.8583  136.7001  172.7775 C.ar    1  UNL1        0.1067
     19 C         134.9781  137.9147  172.7938 C.ar    1  UNL1        0.0577
     20 S         135.5076  138.8844  171.7793 S.2     1  UNL1       -0.0586
     21 C         140.0859  140.7697  166.8482 C.2     1  UNL1        0.3447
     22 O         139.6002  141.9943  166.1311 O.2     1  UNL1       -0.2450
     23 O         141.4143  140.1701  166.4934 O.3     1  UNL1       -0.4455
     24 C         143.0041  142.2103  166.7386 C.3     1  UNL1        0.0513
     25 C         142.5067  141.0391  165.9443 C.3     1  UNL1        0.2089
     26 C         137.7711  139.0129  166.1030 C.3     1  UNL1        0.1405
     27 N         138.8708  138.6569  165.1470 N.3     1  UNL1       -0.2618
     28 C         139.7410  137.4648  165.4152 C.3     1  UNL1        0.1050
     29 C         140.8407  137.1088  164.4592 C.3     1  UNL1        0.1594
     30 O         141.0703  137.9448  163.2351 O.3     1  UNL1       -0.3533
     31 C         140.2002  139.1369  162.9670 C.3     1  UNL1        0.1316
     32 C         139.1004  139.4929  163.9229 C.3     1  UNL1        0.1024
     33 C         140.4297  139.9729  161.7430 C.3     1  UNL1        0.0369
     34 C         139.9091  141.3786  161.6863 C.3     1  UNL1        0.0442
     35 C         138.5751  141.6596  161.0606 C.2     1  UNL1        0.0504
     36 O         138.0518  143.0644  161.0091 O.co2   1  UNL1       -0.5492
     37 O         137.7645  140.5357  160.4862 O.co2   1  UNL1       -0.5492
@<TRIPOS>UNITY_ATOM_ATTR
36 1
charge -1
@<TRIPOS>BOND
     1    24    25    1
     2    25    23    1
     3    23    21    1
     4    21    22    2
     5    21     1    1
     6     1     2    2
     7     2    26    1
     8    26    27    1
     9    27    28    1
    10    28    29    1
    11    29    30    1
    12    30    31    1
    13    31    33    1
    14    33    34    1
    15    34    35    1
    16    35    36   ar
    17    35    37   ar
    18    31    32    1
    19     2     3    1
    20     3     4    1
    21     4    16    1
    22    16    17   ar
    23    17    18   ar
    24    18    19   ar
    25    19    20   ar
    26     4     5    2
    27     5     6    1
    28     6     8    1
    29     8     9   ar
    30     9    10   ar
    31    10    11   ar
    32    11    12    1
    33    11    13   ar
    34    13    14   ar
    35    14    15    1
    36     6     1    1
    37    14     8   ar
    38    32    27    1
    39    20    16   ar
    40     3     7    1
@<TRIPOS>MOLECULE
*****
 37 40 0 0 0
SMALL
GASTEIGER

@<TRIPOS>ATOM
      1 C         140.0970  140.8447  160.8457 C.2     1  UNL1        0.1397
      2 C         140.2261  139.9891  159.6204 C.2     1  UNL1        0.1355
      3 N         139.3222  140.2199  158.4458 N.pl3   1  UNL1       -0.1998
      4 C         138.2892  141.3062  158.4965 C.2     1  UNL1        0.3442
      5 N         138.1600  142.1618  159.7217 N.2     1  UNL1       -0.0580
      6 C         139.0639  141.9310  160.8963 C.3     1  UNL1        0.2692
      7 H         139.4070  139.6583  157.6416 H       1  UNL1        0.2983
      8 C         138.9347  142.7867  162.1216 C.ar    1  UNL1        0.0371
      9 C         138.0287  142.3636  163.2397 C.ar    1  UNL1        0.0030
     10 C         137.8995  143.2191  164.4649 C.ar    1  UNL1        0.0295
     11 C         138.6763  144.4979  164.5721 C.ar    1  UNL1        0.1406
     12 F         138.5471  145.3534  165.7974 F       1  UNL1       -0.2042
     13 C         139.5824  144.9210  163.4541 C.ar    1  UNL1        0.0362
     14 C         139.7116  144.0653  162.2288 C.ar    1  UNL1        0.0372
     15 BR        140.6176  144.4884  161.1107 Br      1  UNL1       -0.0491
     16 C         137.3853  141.5370  157.3219 C.ar    1  UNL1        0.1931
     17 N         136.3037  140.6127  156.8466 N.ar    1  UNL1       -0.2297
     18 C         135.6542  141.2370  155.6473 C.ar    1  UNL1        0.1067
     19 C         136.3344  142.5472  155.3813 C.ar    1  UNL1        0.0577
     20 S         137.4042  142.7326  156.4162 S.2     1  UNL1       -0.0586
     21 C         141.0009  140.6139  162.0203 C.2     1  UNL1        0.3447
     22 O         142.3852  141.1914  162.0262 O.2     1  UNL1       -0.2450
     23 O         140.5204  139.8057  163.1890 O.3     1  UNL1       -0.4455
     24 C         138.8721  137.8513  162.7268 C.3     1  UNL1        0.0513
     25 C         140.2587  138.3374  163.0286 C.3     1  UNL1        0.2089
     26 C         141.2592  138.9027  159.5697 C.3     1  UNL1        0.1405
     27 N         142.2185  138.8330  158.4187 N.3     1  UNL1       -0.2618
     28 C         142.9436  140.0674  157.9709 C.3     1  UNL1        0.1050
     29 C         143.9029  139.9977  156.8198 C.3     1  UNL1        0.1594
     30 O         144.1370  138.6936  156.1166 O.3     1  UNL1       -0.3533
     31 C         143.4119  137.4593  156.5643 C.3     1  UNL1        0.1316
     32 C         142.4526  137.5289  157.7154 C.3     1  UNL1        0.1024
     33 C         143.6460  136.1552  155.8611 C.3     1  UNL1        0.0369
     34 C         143.5570  134.8659  156.6225 C.3     1  UNL1        0.0442
     35 C         142.4659  133.8848  156.3112 C.2     1  UNL1        0.0504
     36 O         142.4975  132.5117  156.9141 O.co2   1  UNL1       -0.5492
     37 O         141.3431  134.2770  155.3971 O.co2   1  UNL1       -0.5492
@<TRIPOS>UNITY_ATOM_ATTR
36 1
charge -1
@<TRIPOS>BOND
     1    24    25    1
     2    25    23    1
     3    23    21    1
     4    21    22    2
     5    21     1    1
     6     1     2    2
     7     2    26    1
     8    26    27    1
     9    27    28    1
    10    28    29    1
    11    29    30    1
    12    30    31    1
    13    31    33    1
    14    33    34    1
    15    34    35    1
    16    35    36   ar
    17    35    37   ar
    18    31    32    1
    19     2     3    1
    20     3     4    1
    21     4    16    1
    22    16    17   ar
    23    17    18   ar
    24    18    19   ar
    25    19    20   ar
    26     4     5    2
    27     5     6    1
    28     6     8    1
    29     8     9   ar
    30     9    10   ar
    31    10    11   ar
    32    11    12    1
    33    11    13   ar
    34    13    14   ar
    35    14    15    1
    36     6     1    1
    37    14     8   ar
    38    32    27    1
    39    20    16   ar
    40     3     7    1
@<TRIPOS>MOLECULE
*****
 37 40 0 0 0
SMALL
GASTEIGER

@<TRIPOS>ATOM
      1 C         141.9275  142.7389  160.9475 C.2     1  UNL1        0.1397
      2 C         142.8352  142.5310  159.7716 C.2     1  UNL1        0.1355
      3 N         142.6082  143.2996  158.5037 N.pl3   1  UNL1       -0.1998
      4 C         141.4734  144.2762  158.4117 C.2     1  UNL1        0.3442
      5 N         140.5657  144.4841  159.5876 N.2     1  UNL1       -0.0580
      6 C         140.7928  143.7155  160.8555 C.3     1  UNL1        0.2692
      7 H         143.2039  143.1631  157.7319 H       1  UNL1        0.2983
      8 C         139.8850  143.9235  162.0315 C.ar    1  UNL1        0.0371
      9 C         140.2617  144.8995  163.1063 C.ar    1  UNL1        0.0030
     10 C         139.3540  145.1075  164.2822 C.ar    1  UNL1        0.0295
     11 C         138.0695  144.3394  164.3833 C.ar    1  UNL1        0.1406
     12 F         137.1618  144.5474  165.5592 F       1  UNL1       -0.2042
     13 C         137.6928  143.3634  163.3084 C.ar    1  UNL1        0.0362
     14 C         138.6006  143.1554  162.1325 C.ar    1  UNL1        0.0372
     15 BR        138.2238  142.1793  161.0576 Br      1  UNL1       -0.0491
     16 C         141.2463  145.0449  157.1438 C.ar    1  UNL1        0.1931
     17 N         140.3222  146.2143  156.9752 N.ar    1  UNL1       -0.2297
     18 C         140.4082  146.6712  155.5490 C.ar    1  UNL1        0.1067
     19 C         141.3855  145.7842  154.8363 C.ar    1  UNL1        0.0577
     20 S         141.9035  144.7791  155.8219 S.2     1  UNL1       -0.0586
     21 C         142.1546  141.9702  162.2154 C.2     1  UNL1        0.3447
     22 O         141.3277  140.7549  162.5141 O.2     1  UNL1       -0.2450
     23 O         143.2086  142.4168  163.1847 O.3     1  UNL1       -0.4455
     24 C         143.8046  144.7699  164.1110 C.3     1  UNL1        0.0513
     25 C         143.8699  143.7520  163.0111 C.3     1  UNL1        0.2089
     26 C         143.9701  141.5543  159.8636 C.3     1  UNL1        0.1405
     27 N         143.6942  140.0801  159.8455 N.3     1  UNL1       -0.2618
     28 C         144.0675  139.2326  161.0255 C.3     1  UNL1        0.1050
     29 C         143.7916  137.7583  161.0074 C.3     1  UNL1        0.1594
     30 O         143.1423  137.1315  159.8093 O.3     1  UNL1       -0.3533
     31 C         142.7689  137.9789  158.6293 C.3     1  UNL1        0.1316
     32 C         143.0448  139.4532  158.6474 C.3     1  UNL1        0.1024
     33 C         142.1196  137.3521  157.4312 C.3     1  UNL1        0.0369
     34 C         142.6676  137.6120  156.0593 C.3     1  UNL1        0.0442
     35 C         144.0199  137.0855  155.6796 C.2     1  UNL1        0.0504
     36 O         144.2029  135.6242  155.3947 O.co2   1  UNL1       -0.5492
     37 O         145.1891  138.0203  155.5849 O.co2   1  UNL1       -0.5492
@<TRIPOS>UNITY_ATOM_ATTR
36 1
charge -1
@<TRIPOS>BOND
     1    24    25    1
     2    25    23    1
     3    23    21    1
     4    21    22    2
     5    21     1    1
     6     1     2    2
     7     2    26    1
     8    26    27    1
     9    27    28    1
    10    28    29    1
    11    29    30    1
    12    30    31    1
    13    31    33    1
    14    33    34    1
    15    34    35    1
    16    35    36   ar
    17    35    37   ar
    18    31    32    1
    19     2     3    1
    20     3     4    1
    21     4    16    1
    22    16    17   ar
    23    17    18   ar
    24    18    19   ar
    25    19    20   ar
    26     4     5    2
    27     5     6    1
    28     6     8    1
    29     8     9   ar
    30     9    10   ar
    31    10    11   ar
    32    11    12    1
    33    11    13   ar
    34    13    14   ar
    35    14    15    1
    36     6     1    1
    37    14     8   ar
    38    32    27    1
    39    20    16   ar
    40     3     7    1
@<TRIPOS>MOLECULE
*****
 37 40 0 0 0
SMALL
GASTEIGER

@<TRIPOS>ATOM
      1 C         143.0816  140.5513  160.1071 C.2     1  UNL1        0.1397
      2 C         143.4291  139.5307  159.0642 C.2     1  UNL1        0.1355
      3 N         144.3091  139.9079  157.9095 N.pl3   1  UNL1       -0.1998
      4 C         144.8417  141.3056  157.7977 C.2     1  UNL1        0.3442
      5 N         144.4943  142.3262  158.8406 N.2     1  UNL1       -0.0580
      6 C         143.6143  141.9490  159.9953 C.3     1  UNL1        0.2692
      7 H         144.5371  139.2380  157.2250 H       1  UNL1        0.2983
      8 C         143.2668  142.9697  161.0382 C.ar    1  UNL1        0.0371
      9 C         144.1654  143.1672  162.2230 C.ar    1  UNL1        0.0030
     10 C         143.8180  144.1878  163.2659 C.ar    1  UNL1        0.0295
     11 C         142.5721  145.0110  163.1240 C.ar    1  UNL1        0.1406
     12 F         142.2247  146.0316  164.1669 F       1  UNL1       -0.2042
     13 C         141.6735  144.8135  161.9393 C.ar    1  UNL1        0.0362
     14 C         142.0210  143.7928  160.8964 C.ar    1  UNL1        0.0372
     15 BR        141.1224  143.5953  159.7116 Br      1  UNL1       -0.0491
     16 C         145.7218  141.6828  156.6431 C.ar    1  UNL1        0.1931
     17 N         146.9230  142.5790  156.7059 N.ar    1  UNL1       -0.2297
     18 C         147.4987  142.6801  155.3245 C.ar    1  UNL1        0.1067
     19 C         146.6534  141.8463  154.4079 C.ar    1  UNL1        0.0577
     20 S         145.5552  141.2300  155.2228 S.2     1  UNL1       -0.0586
     21 C         142.2016  140.1741  161.2617 C.2     1  UNL1        0.3447
     22 O         140.7118  140.3012  161.1421 O.2     1  UNL1       -0.2450
     23 O         142.8113  139.6699  162.5361 O.3     1  UNL1       -0.4455
     24 C         144.9460  139.7311  164.0157 C.3     1  UNL1        0.0513
     25 C         144.3026  139.5787  162.6693 C.3     1  UNL1        0.2089
     26 C         142.8964  138.1329  159.1759 C.3     1  UNL1        0.1405
     27 N         142.1595  137.5167  158.0239 N.3     1  UNL1       -0.2618
     28 C         140.8380  138.0797  157.5916 C.3     1  UNL1        0.1050
     29 C         140.1011  137.4635  156.4395 C.3     1  UNL1        0.1594
     30 O         140.6855  136.2844  155.7197 O.3     1  UNL1       -0.3533
     31 C         142.0069  135.7214  156.1521 C.3     1  UNL1        0.1316
     32 C         142.7439  136.3376  157.3041 C.3     1  UNL1        0.1024
     33 C         142.5914  134.5423  155.4323 C.3     1  UNL1        0.0369
     34 C         142.2535  133.1498  155.8761 C.3     1  UNL1        0.0442
     35 C         143.1359  132.4417  156.8610 C.2     1  UNL1        0.0504
     36 O         142.9661  130.9702  157.0974 O.co2   1  UNL1       -0.5492
     37 O         144.1881  133.2051  157.6094 O.co2   1  UNL1       -0.5492
@<TRIPOS>UNITY_ATOM_ATTR
36 1
charge -1
@<TRIPOS>BOND
     1    24    25    1
     2    25    23    1
     3    23    21    1
     4    21    22    2
     5    21     1    1
     6     1     2    2
     7     2    26    1
     8    26    27    1
     9    27    28    1
    10    28    29    1
    11    29    30    1
    12    30    31    1
    13    31    33    1
    14    33    34    1
    15    34    35    1
    16    35    36   ar
    17    35    37   ar
    18    31    32    1
    19     2     3    1
    20     3     4    1
    21     4    16    1
    22    16    17   ar
    23    17    18   ar
    24    18    19   ar
    25    19    20   ar
    26     4     5    2
    27     5     6    1
    28     6     8    1
    29     8     9   ar
    30     9    10   ar
    31    10    11   ar
    32    11    12    1
    33    11    13   ar
    34    13    14   ar
    35    14    15    1
    36     6     1    1
    37    14     8   ar
    38    32    27    1
    39    20    16   ar
    40     3     7    1
