@<TRIPOS>MOLECULE
*****
 32 35 0 0 0
SMALL
GASTEIGER

@<TRIPOS>ATOM
      1 C         137.8500  143.0100  162.4758 C.3     1  UNL1        0.0570
      2 C         138.1841  142.2372  161.2344 C.3     1  UNL1        0.0331
      3 C         138.3368  140.7463  161.2974 C.3     1  UNL1        0.0735
      4 N         138.1553  140.0282  162.6018 N.3     1  UNL1       -0.2710
      5 C         137.8212  140.8011  163.8432 C.3     1  UNL1        0.0735
      6 C         137.6685  142.2920  163.7802 C.3     1  UNL1        0.0331
      7 N         137.6973  144.5009  162.4128 N.3     1  UNL1       -0.2947
      8 H         137.4749  144.7335  161.4449 H       1  UNL1        0.1235
      9 C         138.8349  145.3892  162.8212 C.3     1  UNL1        0.0972
     10 C         144.4946  143.5072  162.1687 C.3     1  UNL1        0.0528
     11 C         143.0797  143.9777  162.3318 C.ar    1  UNL1        0.0689
     12 N         142.3348  144.5365  161.1559 N.ar    1  UNL1       -0.2477
     13 C         140.9199  145.0070  161.3190 C.ar    1  UNL1        0.0955
     14 C         140.2498  144.9187  162.6581 C.ar    1  UNL1        0.0135
     15 C         140.9947  144.3600  163.8340 C.ar    1  UNL1        0.0101
     16 C         142.4096  143.8895  163.6709 C.ar    1  UNL1        0.0817
     17 C         143.1545  143.3307  164.8469 C.1     1  UNL1        0.1016
     18 N         143.8993  142.7719  166.0229 N.1     1  UNL1       -0.1908
     19 C         138.3079  138.5374  162.6648 C.3     1  UNL1        0.0970
     20 C         138.9721  137.9009  163.8497 C.3     1  UNL1        0.1264
     21 N         140.3652  138.3027  164.2341 N.ar    1  UNL1       -0.2926
     22 C         141.5031  138.0647  163.2862 C.ar    1  UNL1        0.2611
     23 O         141.2478  137.4247  161.9537 O.2     1  UNL1       -0.2670
     24 C         142.8962  138.4665  163.6706 C.ar    1  UNL1        0.0623
     25 C         143.1514  139.1065  165.0030 C.ar    1  UNL1        0.0255
     26 C         142.0136  139.3446  165.9510 C.ar    1  UNL1        0.0974
     27 N         142.2688  139.9846  167.2834 N.ar    1  UNL1       -0.2400
     28 C         141.1310  140.2226  168.2313 C.ar    1  UNL1        0.1285
     29 C         139.7379  139.8207  167.8469 C.ar    1  UNL1        0.1607
     30 F         138.6000  140.0589  168.7949 F       1  UNL1       -0.2025
     31 C         139.4826  139.1808  166.5145 C.ar    1  UNL1        0.0500
     32 C         140.6205  138.9427  165.5666 C.ar    1  UNL1        0.0824
@<TRIPOS>BOND
     1    10    11    1
     2    11    12   ar
     3    12    13   ar
     4    13    14   ar
     5    14     9    1
     6     9     7    1
     7     7     1    1
     8     1     2    1
     9     2     3    1
    10     3     4    1
    11     4    19    1
    12    19    20    1
    13    20    21    1
    14    21    22   ar
    15    22    23    2
    16    22    24   ar
    17    24    25   ar
    18    25    26   ar
    19    26    27   ar
    20    27    28   ar
    21    28    29   ar
    22    29    30    1
    23    29    31   ar
    24    31    32   ar
    25     4     5    1
    26     5     6    1
    27    14    15   ar
    28    15    16   ar
    29    16    17    1
    30    17    18    3
    31    16    11   ar
    32     6     1    1
    33    32    21   ar
    34    32    26   ar
    35     7     8    1
@<TRIPOS>MOLECULE
*****
 32 35 0 0 0
SMALL
GASTEIGER

@<TRIPOS>ATOM
      1 C         138.3733  143.9434  162.8008 C.3     1  UNL1        0.0570
      2 C         138.5069  143.8268  164.2903 C.3     1  UNL1        0.0331
      3 C         138.4173  142.4818  164.9483 C.3     1  UNL1        0.0735
      4 N         138.1941  141.2534  164.1168 N.3     1  UNL1       -0.2710
      5 C         138.0605  141.3701  162.6273 C.3     1  UNL1        0.0735
      6 C         138.1501  142.7151  161.9693 C.3     1  UNL1        0.0331
      7 N         138.4629  145.2884  162.1428 N.3     1  UNL1       -0.2947
      8 H         138.1549  145.1654  161.1782 H       1  UNL1        0.1235
      9 C         139.7761  146.0111  162.0892 C.3     1  UNL1        0.0972
     10 C         144.9095  142.9055  162.0326 C.3     1  UNL1        0.0528
     11 C         143.6262  143.6819  162.0467 C.ar    1  UNL1        0.0689
     12 N         142.8013  143.7902  160.7986 N.ar    1  UNL1       -0.2477
     13 C         141.5180  144.5666  160.8128 C.ar    1  UNL1        0.0955
     14 C         141.0595  145.2347  162.0750 C.ar    1  UNL1        0.0135
     15 C         141.8843  145.1264  163.3232 C.ar    1  UNL1        0.0101
     16 C         143.1677  144.3500  163.3090 C.ar    1  UNL1        0.0817
     17 C         143.9925  144.2416  164.5572 C.1     1  UNL1        0.1016
     18 N         144.8173  144.1333  165.8054 N.1     1  UNL1       -0.1908
     19 C         138.1045  139.9084  164.7748 C.3     1  UNL1        0.0970
     20 C         139.3565  139.1694  165.1443 C.3     1  UNL1        0.1264
     21 N         140.4989  139.9020  165.7832 N.ar    1  UNL1       -0.2926
     22 C         141.7096  140.2571  164.9720 C.ar    1  UNL1        0.2611
     23 O         141.7778  139.8797  163.5218 O.2     1  UNL1       -0.2670
     24 C         142.8520  140.9897  165.6109 C.ar    1  UNL1        0.0623
     25 C         142.7838  141.3671  167.0610 C.ar    1  UNL1        0.0255
     26 C         141.5731  141.0120  167.8723 C.ar    1  UNL1        0.0974
     27 N         141.5048  141.3894  169.3224 N.ar    1  UNL1       -0.2400
     28 C         140.2942  141.0343  170.1336 C.ar    1  UNL1        0.1285
     29 C         139.1517  140.3017  169.4947 C.ar    1  UNL1        0.1607
     30 F         137.9410  139.9465  170.3060 F       1  UNL1       -0.2025
     31 C         139.2200  139.9242  168.0446 C.ar    1  UNL1        0.0500
     32 C         140.4306  140.2794  167.2334 C.ar    1  UNL1        0.0824
@<TRIPOS>BOND
     1    10    11    1
     2    11    12   ar
     3    12    13   ar
     4    13    14   ar
     5    14     9    1
     6     9     7    1
     7     7     1    1
     8     1     2    1
     9     2     3    1
    10     3     4    1
    11     4    19    1
    12    19    20    1
    13    20    21    1
    14    21    22   ar
    15    22    23    2
    16    22    24   ar
    17    24    25   ar
    18    25    26   ar
    19    26    27   ar
    20    27    28   ar
    21    28    29   ar
    22    29    30    1
    23    29    31   ar
    24    31    32   ar
    25     4     5    1
    26     5     6    1
    27    14    15   ar
    28    15    16   ar
    29    16    17    1
    30    17    18    3
    31    16    11   ar
    32     6     1    1
    33    32    21   ar
    34    32    26   ar
    35     7     8    1
@<TRIPOS>MOLECULE
*****
 32 35 0 0 0
SMALL
GASTEIGER

@<TRIPOS>ATOM
      1 C         140.0030  143.8168  162.2365 C.3     1  UNL1        0.0570
      2 C         141.2359  143.4799  161.4513 C.3     1  UNL1        0.0331
      3 C         142.5919  143.6912  162.0569 C.3     1  UNL1        0.0735
      4 N         142.7149  144.2393  163.4478 N.3     1  UNL1       -0.2710
      5 C         141.4820  144.5762  164.2330 C.3     1  UNL1        0.0735
      6 C         140.1261  144.3649  163.6274 C.3     1  UNL1        0.0331
      7 N         138.6471  143.6055  161.6309 N.3     1  UNL1       -0.2947
      8 H         138.1575  144.4987  161.6861 H       1  UNL1        0.1235
      9 C         137.7240  142.5698  162.2012 C.3     1  UNL1        0.0972
     10 C         139.9477  137.4338  164.3638 C.3     1  UNL1        0.0528
     11 C         139.3918  138.7178  163.8232 C.ar    1  UNL1        0.0689
     12 N         139.7467  139.1634  162.4356 N.ar    1  UNL1       -0.2477
     13 C         139.1908  140.4474  161.8949 C.ar    1  UNL1        0.0955
     14 C         138.2800  141.2858  162.7419 C.ar    1  UNL1        0.0135
     15 C         137.9251  140.8403  164.1295 C.ar    1  UNL1        0.0101
     16 C         138.4810  139.5563  164.6701 C.ar    1  UNL1        0.0817
     17 C         138.1261  139.1107  166.0578 C.1     1  UNL1        0.1016
     18 N         137.7712  138.6652  167.4454 N.1     1  UNL1       -0.1908
     19 C         144.0708  144.4506  164.0534 C.3     1  UNL1        0.0970
     20 C         144.5847  143.4987  165.0927 C.3     1  UNL1        0.1264
     21 N         144.2553  142.0383  165.0004 N.ar    1  UNL1       -0.2926
     22 C         144.9711  141.1692  164.0093 C.ar    1  UNL1        0.2611
     23 O         146.0164  141.7606  163.1105 O.2     1  UNL1       -0.2670
     24 C         144.6418  139.7087  163.9169 C.ar    1  UNL1        0.0623
     25 C         143.5966  139.1173  164.8157 C.ar    1  UNL1        0.0255
     26 C         142.8807  139.9864  165.8068 C.ar    1  UNL1        0.0974
     27 N         141.8355  139.3949  166.7055 N.ar    1  UNL1       -0.2400
     28 C         141.1197  140.2640  167.6966 C.ar    1  UNL1        0.1285
     29 C         141.4490  141.7245  167.7890 C.ar    1  UNL1        0.1607
     30 F         140.7331  142.5936  168.7801 F       1  UNL1       -0.2025
     31 C         142.4942  142.3159  166.8902 C.ar    1  UNL1        0.0500
     32 C         143.2100  141.4468  165.8992 C.ar    1  UNL1        0.0824
@<TRIPOS>BOND
     1    10    11    1
     2    11    12   ar
     3    12    13   ar
     4    13    14   ar
     5    14     9    1
     6     9     7    1
     7     7     1    1
     8     1     2    1
     9     2     3    1
    10     3     4    1
    11     4    19    1
    12    19    20    1
    13    20    21    1
    14    21    22   ar
    15    22    23    2
    16    22    24   ar
    17    24    25   ar
    18    25    26   ar
    19    26    27   ar
    20    27    28   ar
    21    28    29   ar
    22    29    30    1
    23    29    31   ar
    24    31    32   ar
    25     4     5    1
    26     5     6    1
    27    14    15   ar
    28    15    16   ar
    29    16    17    1
    30    17    18    3
    31    16    11   ar
    32     6     1    1
    33    32    21   ar
    34    32    26   ar
    35     7     8    1
@<TRIPOS>MOLECULE
*****
 32 35 0 0 0
SMALL
GASTEIGER

@<TRIPOS>ATOM
      1 C         143.9341  139.9882  163.3566 C.3     1  UNL1        0.0570
      2 C         143.8552  139.3633  164.7180 C.3     1  UNL1        0.0331
      3 C         143.3502  140.1631  165.8822 C.3     1  UNL1        0.0735
      4 N         142.9241  141.5878  165.6849 N.3     1  UNL1       -0.2710
      5 C         143.0031  142.2126  164.3236 C.3     1  UNL1        0.0735
      6 C         143.5081  141.4128  163.1594 C.3     1  UNL1        0.0331
      7 N         144.4391  139.1885  162.1924 N.3     1  UNL1       -0.2947
      8 H         144.5048  139.8291  161.4014 H       1  UNL1        0.1235
      9 C         143.6724  137.9902  161.7166 C.3     1  UNL1        0.0972
     10 C         137.6731  138.0814  161.6963 C.3     1  UNL1        0.0528
     11 C         139.1730  138.0586  161.7014 C.ar    1  UNL1        0.0689
     12 N         139.9099  137.4481  162.8565 N.ar    1  UNL1       -0.2477
     13 C         141.4097  137.4253  162.8615 C.ar    1  UNL1        0.0955
     14 C         142.1726  138.0130  161.7116 C.ar    1  UNL1        0.0135
     15 C         141.4357  138.6235  160.5565 C.ar    1  UNL1        0.0101
     16 C         139.9359  138.6463  160.5514 C.ar    1  UNL1        0.0817
     17 C         139.1990  139.2568  159.3962 C.1     1  UNL1        0.1016
     18 N         138.4622  139.8674  158.2411 N.1     1  UNL1       -0.1908
     19 C         142.4191  142.3876  166.8491 C.3     1  UNL1        0.0970
     20 C         140.9434  142.5280  167.0789 C.3     1  UNL1        0.1264
     21 N         139.9909  141.5526  166.4535 N.ar    1  UNL1       -0.2926
     22 C         139.8047  140.1929  167.0588 C.ar    1  UNL1        0.2611
     23 O         140.5712  139.8086  168.2897 O.2     1  UNL1       -0.2670
     24 C         138.8522  139.2174  166.4334 C.ar    1  UNL1        0.0623
     25 C         138.0858  139.6017  165.2026 C.ar    1  UNL1        0.0255
     26 C         138.2719  140.9614  164.5972 C.ar    1  UNL1        0.0974
     27 N         137.5054  141.3457  163.3664 N.ar    1  UNL1       -0.2400
     28 C         137.6916  142.7054  162.7610 C.ar    1  UNL1        0.1285
     29 C         138.6441  143.6808  163.3864 C.ar    1  UNL1        0.1607
     30 F         138.8303  145.0406  162.7810 F       1  UNL1       -0.2025
     31 C         139.4106  143.2966  164.6172 C.ar    1  UNL1        0.0500
     32 C         139.2244  141.9369  165.2226 C.ar    1  UNL1        0.0824
@<TRIPOS>BOND
     1    10    11    1
     2    11    12   ar
     3    12    13   ar
     4    13    14   ar
     5    14     9    1
     6     9     7    1
     7     7     1    1
     8     1     2    1
     9     2     3    1
    10     3     4    1
    11     4    19    1
    12    19    20    1
    13    20    21    1
    14    21    22   ar
    15    22    23    2
    16    22    24   ar
    17    24    25   ar
    18    25    26   ar
    19    26    27   ar
    20    27    28   ar
    21    28    29   ar
    22    29    30    1
    23    29    31   ar
    24    31    32   ar
    25     4     5    1
    26     5     6    1
    27    14    15   ar
    28    15    16   ar
    29    16    17    1
    30    17    18    3
    31    16    11   ar
    32     6     1    1
    33    32    21   ar
    34    32    26   ar
    35     7     8    1
@<TRIPOS>MOLECULE
*****
 32 35 0 0 0
SMALL
GASTEIGER

@<TRIPOS>ATOM
      1 C         138.0851  139.9107  162.3737 C.3     1  UNL1        0.0570
      2 C         137.8768  140.3405  163.7957 C.3     1  UNL1        0.0331
      3 C         137.8022  141.7997  164.1349 C.3     1  UNL1        0.0735
      4 N         137.9359  142.8292  163.0521 N.3     1  UNL1       -0.2710
      5 C         138.1442  142.3994  161.6302 C.3     1  UNL1        0.0735
      6 C         138.2188  140.9402  161.2910 C.3     1  UNL1        0.0331
      7 N         138.1597  138.4515  162.0345 N.3     1  UNL1       -0.2947
      8 H         137.2310  138.0630  162.1993 H       1  UNL1        0.1235
      9 C         139.1337  137.5638  162.7508 C.3     1  UNL1        0.0972
     10 C         144.7104  139.4918  163.8387 C.3     1  UNL1        0.0528
     11 C         143.3162  139.0098  163.5667 C.ar    1  UNL1        0.0689
     12 N         142.7623  139.0639  162.1738 N.ar    1  UNL1       -0.2477
     13 C         141.3682  138.5819  161.9019 C.ar    1  UNL1        0.0955
     14 C         140.5279  138.0458  163.0228 C.ar    1  UNL1        0.0135
     15 C         141.0818  137.9917  164.4157 C.ar    1  UNL1        0.0101
     16 C         142.4760  138.4737  164.6877 C.ar    1  UNL1        0.0817
     17 C         143.0299  138.4195  166.0806 C.1     1  UNL1        0.1016
     18 N         143.5837  138.3654  167.4736 N.1     1  UNL1       -0.1908
     19 C         137.8614  144.2884  163.3913 C.3     1  UNL1        0.0970
     20 C         138.9674  144.9344  164.1720 C.3     1  UNL1        0.1264
     21 N         140.3800  144.4581  164.0059 N.ar    1  UNL1       -0.2926
     22 C         141.1718  144.8656  162.7988 C.ar    1  UNL1        0.2611
     23 O         140.5509  145.7493  161.7578 O.2     1  UNL1       -0.2670
     24 C         142.5844  144.3893  162.6327 C.ar    1  UNL1        0.0623
     25 C         143.2053  143.5056  163.6736 C.ar    1  UNL1        0.0255
     26 C         142.4135  143.0981  164.8808 C.ar    1  UNL1        0.0974
     27 N         143.0344  142.2144  165.9217 N.ar    1  UNL1       -0.2400
     28 C         142.2426  141.8070  167.1288 C.ar    1  UNL1        0.1285
     29 C         140.8299  142.2833  167.2949 C.ar    1  UNL1        0.1607
     30 F         140.0382  141.8758  168.5020 F       1  UNL1       -0.2025
     31 C         140.2091  143.1670  166.2540 C.ar    1  UNL1        0.0500
     32 C         141.0009  143.5744  165.0469 C.ar    1  UNL1        0.0824
@<TRIPOS>BOND
     1    10    11    1
     2    11    12   ar
     3    12    13   ar
     4    13    14   ar
     5    14     9    1
     6     9     7    1
     7     7     1    1
     8     1     2    1
     9     2     3    1
    10     3     4    1
    11     4    19    1
    12    19    20    1
    13    20    21    1
    14    21    22   ar
    15    22    23    2
    16    22    24   ar
    17    24    25   ar
    18    25    26   ar
    19    26    27   ar
    20    27    28   ar
    21    28    29   ar
    22    29    30    1
    23    29    31   ar
    24    31    32   ar
    25     4     5    1
    26     5     6    1
    27    14    15   ar
    28    15    16   ar
    29    16    17    1
    30    17    18    3
    31    16    11   ar
    32     6     1    1
    33    32    21   ar
    34    32    26   ar
    35     7     8    1
@<TRIPOS>MOLECULE
*****
 32 35 0 0 0
SMALL
GASTEIGER

@<TRIPOS>ATOM
      1 C         140.0038  144.5062  162.3434 C.3     1  UNL1        0.0570
      2 C         140.8190  145.1220  163.4417 C.3     1  UNL1        0.0331
      3 C         142.3034  144.9103  163.4829 C.3     1  UNL1        0.0735
      4 N         142.9726  144.0828  162.4257 N.3     1  UNL1       -0.2710
      5 C         142.1573  143.4670  161.3275 C.3     1  UNL1        0.0735
      6 C         140.6729  143.6787  161.2863 C.3     1  UNL1        0.0331
      7 N         138.5193  144.7179  162.3023 N.3     1  UNL1       -0.2947
      8 H         138.3587  145.7107  162.4721 H       1  UNL1        0.1235
      9 C         137.6282  143.9673  163.2470 C.3     1  UNL1        0.0972
     10 C         138.7728  138.2170  164.5213 C.3     1  UNL1        0.0528
     11 C         138.4867  139.6546  164.2027 C.ar    1  UNL1        0.0689
     12 N         137.9968  140.0371  162.8376 N.ar    1  UNL1       -0.2477
     13 C         137.7106  141.4747  162.5190 C.ar    1  UNL1        0.0955
     14 C         137.9144  142.5297  163.5656 C.ar    1  UNL1        0.0135
     15 C         138.4043  142.1472  164.9307 C.ar    1  UNL1        0.0101
     16 C         138.6904  140.7096  165.2493 C.ar    1  UNL1        0.0817
     17 C         139.1803  140.3271  166.6145 C.1     1  UNL1        0.1016
     18 N         139.6702  139.9447  167.9796 N.1     1  UNL1       -0.1908
     19 C         144.4570  143.8711  162.4669 C.3     1  UNL1        0.0970
     20 C         145.0177  142.5978  163.0276 C.3     1  UNL1        0.1264
     21 N         144.1335  141.6659  163.8020 N.ar    1  UNL1       -0.2926
     22 C         143.7930  141.9693  165.2310 C.ar    1  UNL1        0.2611
     23 O         144.3368  143.2046  165.8856 O.2     1  UNL1       -0.2670
     24 C         142.9088  141.0374  166.0054 C.ar    1  UNL1        0.0623
     25 C         142.3651  139.8022  165.3509 C.ar    1  UNL1        0.0255
     26 C         142.7056  139.4987  163.9219 C.ar    1  UNL1        0.0974
     27 N         142.1618  138.2635  163.2674 N.ar    1  UNL1       -0.2400
     28 C         142.5023  137.9601  161.8384 C.ar    1  UNL1        0.1285
     29 C         143.3865  138.8920  161.0639 C.ar    1  UNL1        0.1607
     30 F         143.7270  138.5885  159.6349 F       1  UNL1       -0.2025
     31 C         143.9303  140.1272  161.7185 C.ar    1  UNL1        0.0500
     32 C         143.5898  140.4306  163.1474 C.ar    1  UNL1        0.0824
@<TRIPOS>BOND
     1    10    11    1
     2    11    12   ar
     3    12    13   ar
     4    13    14   ar
     5    14     9    1
     6     9     7    1
     7     7     1    1
     8     1     2    1
     9     2     3    1
    10     3     4    1
    11     4    19    1
    12    19    20    1
    13    20    21    1
    14    21    22   ar
    15    22    23    2
    16    22    24   ar
    17    24    25   ar
    18    25    26   ar
    19    26    27   ar
    20    27    28   ar
    21    28    29   ar
    22    29    30    1
    23    29    31   ar
    24    31    32   ar
    25     4     5    1
    26     5     6    1
    27    14    15   ar
    28    15    16   ar
    29    16    17    1
    30    17    18    3
    31    16    11   ar
    32     6     1    1
    33    32    21   ar
    34    32    26   ar
    35     7     8    1
@<TRIPOS>MOLECULE
*****
 32 35 0 0 0
SMALL
GASTEIGER

@<TRIPOS>ATOM
      1 C         137.9829  140.3608  163.5197 C.3     1  UNL1        0.0570
      2 C         138.7796  139.7145  162.4252 C.3     1  UNL1        0.0331
      3 C         139.7931  138.6599  162.7578 C.3     1  UNL1        0.0735
      4 N         140.0099  138.2515  164.1848 N.3     1  UNL1       -0.2710
      5 C         139.2133  138.8978  165.2792 C.3     1  UNL1        0.0735
      6 C         138.1998  139.9524  164.9466 C.3     1  UNL1        0.0331
      7 N         136.9694  141.4154  163.1872 N.3     1  UNL1       -0.2947
      8 H         136.8504  141.4004  162.1742 H       1  UNL1        0.1235
      9 C         137.2188  142.8434  163.5727 C.3     1  UNL1        0.0972
     10 C         142.7934  145.0581  163.4358 C.3     1  UNL1        0.0528
     11 C         141.3998  144.5044  163.4700 C.ar    1  UNL1        0.0689
     12 N         140.7906  144.0867  164.7755 N.ar    1  UNL1       -0.2477
     13 C         139.3969  143.5330  164.8097 C.ar    1  UNL1        0.0955
     14 C         138.6125  143.3970  163.5385 C.ar    1  UNL1        0.0135
     15 C         139.2217  143.8147  162.2330 C.ar    1  UNL1        0.0101
     16 C         140.6154  144.3684  162.1988 C.ar    1  UNL1        0.0817
     17 C         141.2246  144.7861  160.8932 C.1     1  UNL1        0.1016
     18 N         141.8338  145.2038  159.5877 N.1     1  UNL1       -0.1908
     19 C         141.0234  137.1969  164.5174 C.3     1  UNL1        0.0970
     20 C         142.3812  137.5926  165.0173 C.3     1  UNL1        0.1264
     21 N         142.9511  138.9331  164.6588 N.ar    1  UNL1       -0.2926
     22 C         143.5095  139.1680  163.2866 C.ar    1  UNL1        0.2611
     23 O         143.4980  138.0625  162.2728 O.2     1  UNL1       -0.2670
     24 C         144.0793  140.5084  162.9282 C.ar    1  UNL1        0.0623
     25 C         144.0908  141.6140  163.9419 C.ar    1  UNL1        0.0255
     26 C         143.5323  141.3791  165.3142 C.ar    1  UNL1        0.0974
     27 N         143.5438  142.4846  166.3279 N.ar    1  UNL1       -0.2400
     28 C         142.9854  142.2496  167.7001 C.ar    1  UNL1        0.1285
     29 C         142.4156  140.9092  168.0585 C.ar    1  UNL1        0.1607
     30 F         141.8571  140.6743  169.4308 F       1  UNL1       -0.2025
     31 C         142.4041  139.8037  167.0448 C.ar    1  UNL1        0.0500
     32 C         142.9625  140.0386  165.6726 C.ar    1  UNL1        0.0824
@<TRIPOS>BOND
     1    10    11    1
     2    11    12   ar
     3    12    13   ar
     4    13    14   ar
     5    14     9    1
     6     9     7    1
     7     7     1    1
     8     1     2    1
     9     2     3    1
    10     3     4    1
    11     4    19    1
    12    19    20    1
    13    20    21    1
    14    21    22   ar
    15    22    23    2
    16    22    24   ar
    17    24    25   ar
    18    25    26   ar
    19    26    27   ar
    20    27    28   ar
    21    28    29   ar
    22    29    30    1
    23    29    31   ar
    24    31    32   ar
    25     4     5    1
    26     5     6    1
    27    14    15   ar
    28    15    16   ar
    29    16    17    1
    30    17    18    3
    31    16    11   ar
    32     6     1    1
    33    32    21   ar
    34    32    26   ar
    35     7     8    1
@<TRIPOS>MOLECULE
*****
 32 35 0 0 0
SMALL
GASTEIGER

@<TRIPOS>ATOM
      1 C         140.5173  144.2117  164.5756 C.3     1  UNL1        0.0570
      2 C         141.8532  143.5867  164.3018 C.3     1  UNL1        0.0331
      3 C         142.4292  142.5945  165.2681 C.3     1  UNL1        0.0735
      4 N         141.6693  142.2273  166.5083 N.3     1  UNL1       -0.2710
      5 C         140.3335  142.8522  166.7820 C.3     1  UNL1        0.0735
      6 C         139.7575  143.8444  165.8157 C.3     1  UNL1        0.0331
      7 N         139.9412  145.2038  163.6093 N.3     1  UNL1       -0.2947
      8 H         139.7911  146.0683  164.1294 H       1  UNL1        0.1235
      9 C         138.6570  144.8984  162.8971 C.3     1  UNL1        0.0972
     10 C         137.5284  139.3166  161.0078 C.3     1  UNL1        0.0528
     11 C         137.8105  140.7120  161.4801 C.ar    1  UNL1        0.0689
     12 N         137.1782  141.2189  162.7423 N.ar    1  UNL1       -0.2477
     13 C         137.4604  142.6143  163.2146 C.ar    1  UNL1        0.0955
     14 C         138.3749  143.5030  162.4247 C.ar    1  UNL1        0.0135
     15 C         139.0072  142.9961  161.1625 C.ar    1  UNL1        0.0101
     16 C         138.7250  141.6007  160.6902 C.ar    1  UNL1        0.0817
     17 C         139.3574  141.0939  159.4279 C.1     1  UNL1        0.1016
     18 N         139.9897  140.5871  158.1656 N.1     1  UNL1       -0.1908
     19 C         142.2454  141.2351  167.4746 C.3     1  UNL1        0.0970
     20 C         141.9750  139.7704  167.2961 C.3     1  UNL1        0.1264
     21 N         140.8754  139.3167  166.3822 N.ar    1  UNL1       -0.2926
     22 C         139.4561  139.3005  166.8670 C.ar    1  UNL1        0.2611
     23 O         139.1362  139.7380  168.2657 O.2     1  UNL1       -0.2670
     24 C         138.3565  138.8467  165.9532 C.ar    1  UNL1        0.0623
     25 C         138.6764  138.4091  164.5545 C.ar    1  UNL1        0.0255
     26 C         140.0958  138.4253  164.0697 C.ar    1  UNL1        0.0974
     27 N         140.4157  137.9878  162.6711 N.ar    1  UNL1       -0.2400
     28 C         141.8351  138.0040  162.1863 C.ar    1  UNL1        0.1285
     29 C         142.9346  138.4578  163.1002 C.ar    1  UNL1        0.1607
     30 F         144.3540  138.4740  162.6153 F       1  UNL1       -0.2025
     31 C         142.6147  138.8953  164.4988 C.ar    1  UNL1        0.0500
     32 C         141.1954  138.8791  164.9835 C.ar    1  UNL1        0.0824
@<TRIPOS>BOND
     1    10    11    1
     2    11    12   ar
     3    12    13   ar
     4    13    14   ar
     5    14     9    1
     6     9     7    1
     7     7     1    1
     8     1     2    1
     9     2     3    1
    10     3     4    1
    11     4    19    1
    12    19    20    1
    13    20    21    1
    14    21    22   ar
    15    22    23    2
    16    22    24   ar
    17    24    25   ar
    18    25    26   ar
    19    26    27   ar
    20    27    28   ar
    21    28    29   ar
    22    29    30    1
    23    29    31   ar
    24    31    32   ar
    25     4     5    1
    26     5     6    1
    27    14    15   ar
    28    15    16   ar
    29    16    17    1
    30    17    18    3
    31    16    11   ar
    32     6     1    1
    33    32    21   ar
    34    32    26   ar
    35     7     8    1
@<TRIPOS>MOLECULE
*****
 32 35 0 0 0
SMALL
GASTEIGER

@<TRIPOS>ATOM
      1 C         141.4879  137.6646  162.4753 C.3     1  UNL1        0.0570
      2 C         140.0945  138.0490  162.0744 C.3     1  UNL1        0.0331
      3 C         139.0314  138.2124  163.1200 C.3     1  UNL1        0.0735
      4 N         139.3618  137.9913  164.5664 N.3     1  UNL1       -0.2710
      5 C         140.7552  137.6069  164.9672 C.3     1  UNL1        0.0735
      6 C         141.8183  137.4435  163.9216 C.3     1  UNL1        0.0331
      7 N         142.5510  137.5013  161.4297 N.3     1  UNL1       -0.2947
      8 H         142.6863  136.4984  161.3015 H       1  UNL1        0.1235
      9 C         143.9106  138.0979  161.6428 C.3     1  UNL1        0.0972
     10 C         144.4794  143.2878  164.5993 C.3     1  UNL1        0.0528
     11 C         144.3372  141.9903  163.8602 C.ar    1  UNL1        0.0689
     12 N         144.9024  140.7292  164.4433 N.ar    1  UNL1       -0.2477
     13 C         144.7602  139.4317  163.7041 C.ar    1  UNL1        0.0955
     14 C         144.0528  139.3954  162.3819 C.ar    1  UNL1        0.0135
     15 C         143.4876  140.6565  161.7989 C.ar    1  UNL1        0.0101
     16 C         143.6298  141.9540  162.5380 C.ar    1  UNL1        0.0817
     17 C         143.0646  143.2152  161.9549 C.1     1  UNL1        0.1016
     18 N         142.4994  144.4764  161.3718 N.1     1  UNL1       -0.1908
     19 C         138.2988  138.1546  165.6120 C.3     1  UNL1        0.0970
     20 C         138.0511  139.5007  166.2259 C.3     1  UNL1        0.1264
     21 N         139.0204  140.6214  165.9922 N.ar    1  UNL1       -0.2926
     22 C         138.8008  141.5788  164.8586 C.ar    1  UNL1        0.2611
     23 O         137.6118  141.4157  163.9587 O.2     1  UNL1       -0.2670
     24 C         139.7701  142.6995  164.6249 C.ar    1  UNL1        0.0623
     25 C         140.9590  142.8627  165.5248 C.ar    1  UNL1        0.0255
     26 C         141.1787  141.9052  166.6584 C.ar    1  UNL1        0.0974
     27 N         142.3676  142.0684  167.5582 N.ar    1  UNL1       -0.2400
     28 C         142.5873  141.1109  168.6918 C.ar    1  UNL1        0.1285
     29 C         141.6180  139.9903  168.9255 C.ar    1  UNL1        0.1607
     30 F         141.8377  139.0328  170.0591 F       1  UNL1       -0.2025
     31 C         140.4291  139.8271  168.0256 C.ar    1  UNL1        0.0500
     32 C         140.2094  140.7845  166.8921 C.ar    1  UNL1        0.0824
@<TRIPOS>BOND
     1    10    11    1
     2    11    12   ar
     3    12    13   ar
     4    13    14   ar
     5    14     9    1
     6     9     7    1
     7     7     1    1
     8     1     2    1
     9     2     3    1
    10     3     4    1
    11     4    19    1
    12    19    20    1
    13    20    21    1
    14    21    22   ar
    15    22    23    2
    16    22    24   ar
    17    24    25   ar
    18    25    26   ar
    19    26    27   ar
    20    27    28   ar
    21    28    29   ar
    22    29    30    1
    23    29    31   ar
    24    31    32   ar
    25     4     5    1
    26     5     6    1
    27    14    15   ar
    28    15    16   ar
    29    16    17    1
    30    17    18    3
    31    16    11   ar
    32     6     1    1
    33    32    21   ar
    34    32    26   ar
    35     7     8    1
