@<TRIPOS>MOLECULE
*****
 29 33 0 0 0
SMALL
GASTEIGER

@<TRIPOS>ATOM
      1 N         140.7101  141.8389  162.2768 N.ar    1  UNL1       -0.2903
      2 C         141.1787  141.9333  163.6986 C.ar    1  UNL1        0.0812
      3 C         140.7004  140.7120  164.4263 C.ar    1  UNL1        0.0177
      4 C         139.9363  139.8627  163.4542 C.ar    1  UNL1        0.0462
      5 C         139.2358  138.5452  163.6071 C.ar    1  UNL1        0.0621
      6 CL        139.2298  137.8487  164.9356 Cl      1  UNL1       -0.0821
      7 C         138.5414  137.9241  162.4315 C.ar    1  UNL1        0.0322
      8 C         138.5474  138.6206  161.1031 C.ar    1  UNL1        0.1014
      9 N         139.2479  139.9382  160.9502 N.ar    1  UNL1       -0.2264
     10 C         139.9423  140.5592  162.1257 C.ar    1  UNL1        0.1485
     11 C         140.9435  140.3954  165.8722 C.2     1  UNL1       -0.0146
     12 C         142.2909  139.9093  166.3173 C.2     1  UNL1       -0.0038
     13 C         142.5340  139.5927  167.7632 C.2     1  UNL1        0.0009
     14 C         141.4297  139.7623  168.7641 C.2     1  UNL1        0.0154
     15 C         141.3732  139.5313  170.2451 C.2     1  UNL1        0.0218
     16 C         139.9909  139.8747  170.7154 C.2     1  UNL1        0.0985
     17 N         139.1930  140.3179  169.5250 N.2     1  UNL1       -0.2478
     18 C         140.0823  140.2484  168.3190 C.2     1  UNL1        0.0634
     19 C         139.8391  140.5650  166.8731 C.3     1  UNL1        0.0721
     20 C         141.4740  144.8637  159.0337 C.ar    1  UNL1       -0.0060
     21 C         140.3637  145.0835  160.0180 C.ar    1  UNL1       -0.0014
     22 C         140.1091  144.0753  161.0990 C.ar    1  UNL1        0.0173
     23 C         140.9647  142.8472  161.1958 C.ar    1  UNL1        0.0654
     24 C         142.0751  142.6273  160.2115 C.ar    1  UNL1        0.0173
     25 C         142.3297  143.6355  159.1304 C.ar    1  UNL1       -0.0014
     26 C         141.7286  145.8719  157.9527 C.3     1  UNL1        0.0992
     27 C         141.4404  144.9870  155.5270 C.3     1  UNL1        0.0899
     28 N         140.9448  145.8157  156.6750 N.3     1  UNL1       -0.2665
     29 C         139.6656  146.5882  156.5452 C.3     1  UNL1        0.0899
@<TRIPOS>BOND
     1    27    28    1
     2    28    29    1
     3    28    26    1
     4    26    20    1
     5    20    21   ar
     6    21    22   ar
     7    22    23   ar
     8    23     1    1
     9     1     2   ar
    10     2     3   ar
    11     3    11    1
    12    11    12    2
    13    12    13    1
    14    13    14    2
    15    14    15    1
    16    15    16    2
    17    16    17    1
    18    17    18    2
    19    18    19    1
    20     3     4   ar
    21     4     5   ar
    22     5     6    1
    23     5     7   ar
    24     7     8   ar
    25     8     9   ar
    26     9    10   ar
    27    23    24   ar
    28    24    25   ar
    29    25    20   ar
    30    10     1   ar
    31    19    11    1
    32    10     4   ar
    33    18    14    1
@<TRIPOS>MOLECULE
*****
 29 33 0 0 0
SMALL
GASTEIGER

@<TRIPOS>ATOM
      1 N         140.3912  139.4865  161.6087 N.ar    1  UNL1       -0.2903
      2 C         140.4287  139.0483  163.0428 C.ar    1  UNL1        0.0812
      3 C         139.6393  140.0358  163.8500 C.ar    1  UNL1        0.0177
      4 C         139.1139  141.0843  162.9148 C.ar    1  UNL1        0.0462
      5 C         138.2724  142.3044  163.1457 C.ar    1  UNL1        0.0621
      6 CL        137.8076  142.6438  164.5309 Cl      1  UNL1       -0.0821
      7 C         137.8956  143.1849  161.9913 C.ar    1  UNL1        0.0322
      8 C         138.3603  142.8454  160.6061 C.ar    1  UNL1        0.1014
      9 N         139.2018  141.6254  160.3753 N.ar    1  UNL1       -0.2264
     10 C         139.5786  140.7449  161.5296 C.ar    1  UNL1        0.1485
     11 C         139.4147  139.9839  165.3322 C.2     1  UNL1       -0.0146
     12 C         138.3350  139.1092  165.8970 C.2     1  UNL1       -0.0038
     13 C         138.1103  139.0573  167.3792 C.2     1  UNL1        0.0009
     14 C         138.9655  139.8802  168.2966 C.2     1  UNL1        0.0154
     15 C         138.9780  140.0332  169.7887 C.2     1  UNL1        0.0218
     16 C         140.0655  141.0025  170.1461 C.2     1  UNL1        0.0985
     17 N         140.7251  141.4485  168.8749 N.2     1  UNL1       -0.2478
     18 C         140.0452  140.7549  167.7318 C.2     1  UNL1        0.0634
     19 C         140.2698  140.8068  166.2496 C.3     1  UNL1        0.0721
     20 C         142.3692  137.3937  158.1507 C.ar    1  UNL1       -0.0060
     21 C         143.0154  137.3805  159.5043 C.ar    1  UNL1       -0.0014
     22 C         142.3560  138.0781  160.6569 C.ar    1  UNL1        0.0173
     23 C         141.0506  138.7889  160.4561 C.ar    1  UNL1        0.0654
     24 C         140.4043  138.8021  159.1024 C.ar    1  UNL1        0.0173
     25 C         141.0637  138.1045  157.9497 C.ar    1  UNL1       -0.0014
     26 C         143.0286  136.6961  156.9980 C.3     1  UNL1        0.0992
     27 C         143.4648  134.1956  157.5522 C.3     1  UNL1        0.0899
     28 N         142.7559  135.2429  156.7455 N.3     1  UNL1       -0.2665
     29 C         141.7742  134.8370  155.6865 C.3     1  UNL1        0.0899
@<TRIPOS>BOND
     1    27    28    1
     2    28    29    1
     3    28    26    1
     4    26    20    1
     5    20    21   ar
     6    21    22   ar
     7    22    23   ar
     8    23     1    1
     9     1     2   ar
    10     2     3   ar
    11     3    11    1
    12    11    12    2
    13    12    13    1
    14    13    14    2
    15    14    15    1
    16    15    16    2
    17    16    17    1
    18    17    18    2
    19    18    19    1
    20     3     4   ar
    21     4     5   ar
    22     5     6    1
    23     5     7   ar
    24     7     8   ar
    25     8     9   ar
    26     9    10   ar
    27    23    24   ar
    28    24    25   ar
    29    25    20   ar
    30    10     1   ar
    31    19    11    1
    32    10     4   ar
    33    18    14    1
@<TRIPOS>MOLECULE
*****
 29 33 0 0 0
SMALL
GASTEIGER

@<TRIPOS>ATOM
      1 N         142.3794  142.1347  162.3946 N.ar    1  UNL1       -0.2903
      2 C         142.7524  141.5365  163.7186 C.ar    1  UNL1        0.0812
      3 C         141.8634  142.1385  164.7661 C.ar    1  UNL1        0.0177
      4 C         140.9410  143.1088  164.0895 C.ar    1  UNL1        0.0462
      5 C         139.8520  143.9942  164.6187 C.ar    1  UNL1        0.0621
      6 CL        139.5331  143.9965  166.0844 Cl      1  UNL1       -0.0821
      7 C         139.0818  144.8771  163.6822 C.ar    1  UNL1        0.0322
      8 C         139.4007  144.8747  162.2165 C.ar    1  UNL1        0.1014
      9 N         140.4897  143.9894  161.6873 N.ar    1  UNL1       -0.2264
     10 C         141.2599  143.1064  162.6238 C.ar    1  UNL1        0.1485
     11 C         141.8919  141.8253  166.2328 C.2     1  UNL1       -0.0146
     12 C         142.9994  142.3586  167.0923 C.2     1  UNL1       -0.0038
     13 C         143.0278  142.0454  168.5590 C.2     1  UNL1        0.0009
     14 C         141.9487  141.1988  169.1661 C.2     1  UNL1        0.0154
     15 C         141.7139  140.7268  170.5704 C.2     1  UNL1        0.0218
     16 C         140.4613  139.9018  170.5789 C.2     1  UNL1        0.0985
     17 N         139.9218  139.8639  169.1798 N.2     1  UNL1       -0.2478
     18 C         140.8410  140.6655  168.3067 C.2     1  UNL1        0.0634
     19 C         140.8126  140.9787  166.8400 C.3     1  UNL1        0.0721
     20 C         144.2842  141.1813  158.4306 C.ar    1  UNL1       -0.0060
     21 C         144.2236  142.6008  158.9116 C.ar    1  UNL1       -0.0014
     22 C         143.5887  142.9185  160.2329 C.ar    1  UNL1        0.0173
     23 C         143.0143  141.8169  161.0733 C.ar    1  UNL1        0.0654
     24 C         143.0749  140.3973  160.5923 C.ar    1  UNL1        0.0173
     25 C         143.7099  140.0795  159.2710 C.ar    1  UNL1       -0.0014
     26 C         144.9192  140.8635  157.1093 C.3     1  UNL1        0.0992
     27 C         146.9646  142.3613  156.5410 C.3     1  UNL1        0.0899
     28 N         145.5412  141.9579  156.2936 N.3     1  UNL1       -0.2665
     29 C         144.7397  142.6489  155.2305 C.3     1  UNL1        0.0899
@<TRIPOS>BOND
     1    27    28    1
     2    28    29    1
     3    28    26    1
     4    26    20    1
     5    20    21   ar
     6    21    22   ar
     7    22    23   ar
     8    23     1    1
     9     1     2   ar
    10     2     3   ar
    11     3    11    1
    12    11    12    2
    13    12    13    1
    14    13    14    2
    15    14    15    1
    16    15    16    2
    17    16    17    1
    18    17    18    2
    19    18    19    1
    20     3     4   ar
    21     4     5   ar
    22     5     6    1
    23     5     7   ar
    24     7     8   ar
    25     8     9   ar
    26     9    10   ar
    27    23    24   ar
    28    24    25   ar
    29    25    20   ar
    30    10     1   ar
    31    19    11    1
    32    10     4   ar
    33    18    14    1
@<TRIPOS>MOLECULE
*****
 29 33 0 0 0
SMALL
GASTEIGER

@<TRIPOS>ATOM
      1 N         141.1566  140.1915  162.5055 N.ar    1  UNL1       -0.2903
      2 C         141.1847  139.6330  163.8973 C.ar    1  UNL1        0.0812
      3 C         140.7484  140.7153  164.8398 C.ar    1  UNL1        0.0177
      4 C         140.4507  141.9426  164.0304 C.ar    1  UNL1        0.0462
      5 C         139.9825  143.3132  164.4207 C.ar    1  UNL1        0.0621
      6 CL        139.7302  143.6370  165.8635 Cl      1  UNL1       -0.0821
      7 C         139.7666  144.3599  163.3683 C.ar    1  UNL1        0.0322
      8 C         140.0189  144.0361  161.9255 C.ar    1  UNL1        0.1014
      9 N         140.4871  142.6656  161.5352 N.ar    1  UNL1       -0.2264
     10 C         140.7030  141.6189  162.5877 C.ar    1  UNL1        0.1485
     11 C         140.6305  140.5920  166.3301 C.2     1  UNL1       -0.0146
     12 C         139.3597  140.0819  166.9423 C.2     1  UNL1       -0.0038
     13 C         139.2418  139.9586  168.4325 C.2     1  UNL1        0.0009
     14 C         140.3947  140.3454  169.3107 C.2     1  UNL1        0.0154
     15 C         140.5703  140.3325  170.8002 C.2     1  UNL1        0.0218
     16 C         141.9497  140.8346  171.1088 C.2     1  UNL1        0.0985
     17 N         142.6266  141.1579  169.8098 N.2     1  UNL1       -0.2478
     18 C         141.6655  140.8555  168.6985 C.2     1  UNL1        0.0634
     19 C         141.7835  140.9789  167.2082 C.3     1  UNL1        0.0721
     20 C         142.2426  137.9739  158.7433 C.ar    1  UNL1       -0.0060
     21 C         143.1879  137.9831  159.9079 C.ar    1  UNL1       -0.0014
     22 C         142.8259  138.7223  161.1619 C.ar    1  UNL1        0.0173
     23 C         141.5186  139.4523  161.2514 C.ar    1  UNL1        0.0654
     24 C         140.5732  139.4430  160.0868 C.ar    1  UNL1        0.0173
     25 C         140.9352  138.7038  158.8328 C.ar    1  UNL1       -0.0014
     26 C         142.6046  137.2347  157.4893 C.3     1  UNL1        0.0992
     27 C         144.2500  137.0221  155.4900 C.3     1  UNL1        0.0899
     28 N         143.5066  137.8741  156.4757 N.3     1  UNL1       -0.2665
     29 C         143.6652  139.3654  156.4477 C.3     1  UNL1        0.0899
@<TRIPOS>BOND
     1    27    28    1
     2    28    29    1
     3    28    26    1
     4    26    20    1
     5    20    21   ar
     6    21    22   ar
     7    22    23   ar
     8    23     1    1
     9     1     2   ar
    10     2     3   ar
    11     3    11    1
    12    11    12    2
    13    12    13    1
    14    13    14    2
    15    14    15    1
    16    15    16    2
    17    16    17    1
    18    17    18    2
    19    18    19    1
    20     3     4   ar
    21     4     5   ar
    22     5     6    1
    23     5     7   ar
    24     7     8   ar
    25     8     9   ar
    26     9    10   ar
    27    23    24   ar
    28    24    25   ar
    29    25    20   ar
    30    10     1   ar
    31    19    11    1
    32    10     4   ar
    33    18    14    1
@<TRIPOS>MOLECULE
*****
 29 33 0 0 0
SMALL
GASTEIGER

@<TRIPOS>ATOM
      1 N         141.1398  142.3100  162.3010 N.ar    1  UNL1       -0.2903
      2 C         140.4280  142.3454  163.6209 C.ar    1  UNL1        0.0812
      3 C         141.0311  141.2911  164.5011 C.ar    1  UNL1        0.0177
      4 C         142.1156  140.6041  163.7252 C.ar    1  UNL1        0.0462
      5 C         143.0506  139.4865  164.0812 C.ar    1  UNL1        0.0621
      6 CL        142.9834  138.8567  165.4409 Cl      1  UNL1       -0.0821
      7 C         144.0528  138.9987  163.0774 C.ar    1  UNL1        0.0322
      8 C         144.1199  139.6285  161.7176 C.ar    1  UNL1        0.1014
      9 N         143.1850  140.7461  161.3617 N.ar    1  UNL1       -0.2264
     10 C         142.1828  141.2339  162.3655 C.ar    1  UNL1        0.1485
     11 C         140.6216  140.9785  165.9099 C.2     1  UNL1       -0.0146
     12 C         139.5167  139.9980  166.1698 C.2     1  UNL1       -0.0038
     13 C         139.1072  139.6854  167.5786 C.2     1  UNL1        0.0009
     14 C         139.8026  140.3535  168.7275 C.2     1  UNL1        0.0154
     15 C         139.6182  140.2457  170.2122 C.2     1  UNL1        0.0218
     16 C         140.6091  141.1597  170.8699 C.2     1  UNL1        0.0985
     17 N         141.4060  141.8324  169.7917 N.2     1  UNL1       -0.2478
     18 C         140.9076  141.3341  168.4676 C.2     1  UNL1        0.0634
     19 C         141.3171  141.6467  167.0589 C.3     1  UNL1        0.0721
     20 C         140.2948  144.9662  158.7682 C.ar    1  UNL1       -0.0060
     21 C         139.7900  143.5538  158.7824 C.ar    1  UNL1       -0.0014
     22 C         140.0717  142.6684  159.9600 C.ar    1  UNL1        0.0173
     23 C         140.8581  143.1954  161.1234 C.ar    1  UNL1        0.0654
     24 C         141.3630  144.6079  161.1093 C.ar    1  UNL1        0.0173
     25 C         141.0813  145.4933  159.9317 C.ar    1  UNL1       -0.0014
     26 C         140.0131  145.8516  157.5906 C.3     1  UNL1        0.0992
     27 C         140.5316  146.5523  155.1431 C.3     1  UNL1        0.0899
     28 N         140.9143  145.8150  156.3921 N.3     1  UNL1       -0.2665
     29 C         142.1982  145.0410  156.4426 C.3     1  UNL1        0.0899
@<TRIPOS>BOND
     1    27    28    1
     2    28    29    1
     3    28    26    1
     4    26    20    1
     5    20    21   ar
     6    21    22   ar
     7    22    23   ar
     8    23     1    1
     9     1     2   ar
    10     2     3   ar
    11     3    11    1
    12    11    12    2
    13    12    13    1
    14    13    14    2
    15    14    15    1
    16    15    16    2
    17    16    17    1
    18    17    18    2
    19    18    19    1
    20     3     4   ar
    21     4     5   ar
    22     5     6    1
    23     5     7   ar
    24     7     8   ar
    25     8     9   ar
    26     9    10   ar
    27    23    24   ar
    28    24    25   ar
    29    25    20   ar
    30    10     1   ar
    31    19    11    1
    32    10     4   ar
    33    18    14    1
@<TRIPOS>MOLECULE
*****
 29 33 0 0 0
SMALL
GASTEIGER

@<TRIPOS>ATOM
      1 N         142.0958  142.7104  163.4424 N.ar    1  UNL1       -0.2903
      2 C         142.8877  141.8849  162.4721 C.ar    1  UNL1        0.0812
      3 C         142.6821  142.4573  161.1009 C.ar    1  UNL1        0.0177
      4 C         141.7632  143.6365  161.2238 C.ar    1  UNL1        0.0462
      5 C         141.2096  144.5879  160.2049 C.ar    1  UNL1        0.0621
      6 CL        141.5720  144.4315  158.7577 Cl      1  UNL1       -0.0821
      7 C         140.2937  145.6959  160.6331 C.ar    1  UNL1        0.0322
      8 C         139.9313  145.8524  162.0803 C.ar    1  UNL1        0.1014
      9 N         140.4849  144.9009  163.0992 N.ar    1  UNL1       -0.2264
     10 C         141.4009  143.7929  162.6709 C.ar    1  UNL1        0.1485
     11 C         143.2889  141.9410  159.8300 C.2     1  UNL1       -0.0146
     12 C         142.6633  140.7783  159.1183 C.2     1  UNL1       -0.0038
     13 C         143.2701  140.2621  157.8474 C.2     1  UNL1        0.0009
     14 C         144.5026  140.9086  157.2880 C.2     1  UNL1        0.0154
     15 C         145.3192  140.6209  156.0632 C.2     1  UNL1        0.0218
     16 C         146.4496  141.6058  156.0177 C.2     1  UNL1        0.0985
     17 N         146.3316  142.5023  157.2146 N.2     1  UNL1       -0.2478
     18 C         145.1283  142.0714  157.9997 C.2     1  UNL1        0.0634
     19 C         144.5215  142.5876  159.2706 C.3     1  UNL1        0.0721
     20 C         141.8484  142.0546  167.8875 C.ar    1  UNL1       -0.0060
     21 C         143.1780  142.3015  167.2387 C.ar    1  UNL1       -0.0014
     22 C         143.2605  142.5201  165.7570 C.ar    1  UNL1        0.0173
     23 C         142.0134  142.4918  164.9241 C.ar    1  UNL1        0.0654
     24 C         140.6836  142.2449  165.5730 C.ar    1  UNL1        0.0173
     25 C         140.6012  142.0263  167.0547 C.ar    1  UNL1       -0.0014
     26 C         141.7659  141.8360  169.3692 C.3     1  UNL1        0.0992
     27 C         140.1794  140.2491  170.6786 C.3     1  UNL1        0.0899
     28 N         141.4477  140.4735  169.9098 N.3     1  UNL1       -0.2665
     29 C         142.3978  139.3354  169.6815 C.3     1  UNL1        0.0899
@<TRIPOS>BOND
     1    27    28    1
     2    28    29    1
     3    28    26    1
     4    26    20    1
     5    20    21   ar
     6    21    22   ar
     7    22    23   ar
     8    23     1    1
     9     1     2   ar
    10     2     3   ar
    11     3    11    1
    12    11    12    2
    13    12    13    1
    14    13    14    2
    15    14    15    1
    16    15    16    2
    17    16    17    1
    18    17    18    2
    19    18    19    1
    20     3     4   ar
    21     4     5   ar
    22     5     6    1
    23     5     7   ar
    24     7     8   ar
    25     8     9   ar
    26     9    10   ar
    27    23    24   ar
    28    24    25   ar
    29    25    20   ar
    30    10     1   ar
    31    19    11    1
    32    10     4   ar
    33    18    14    1
@<TRIPOS>MOLECULE
*****
 29 33 0 0 0
SMALL
GASTEIGER

@<TRIPOS>ATOM
      1 N         142.4826  139.8547  162.1347 N.ar    1  UNL1       -0.2903
      2 C         142.0204  139.2683  163.4357 C.ar    1  UNL1        0.0812
      3 C         142.4055  140.2150  164.5336 C.ar    1  UNL1        0.0177
      4 C         143.1057  141.3864  163.9112 C.ar    1  UNL1        0.0462
      5 C         143.7061  142.6271  164.5029 C.ar    1  UNL1        0.0621
      6 CL        143.6584  142.8498  165.9856 Cl      1  UNL1       -0.0821
      7 C         144.3540  143.6451  163.6121 C.ar    1  UNL1        0.0322
      8 C         144.4017  143.4225  162.1294 C.ar    1  UNL1        0.1014
      9 N         143.8013  142.1818  161.5377 N.ar    1  UNL1       -0.2264
     10 C         143.1533  141.1638  162.4286 C.ar    1  UNL1        0.1485
     11 C         142.1375  140.0238  165.9970 C.2     1  UNL1       -0.0146
     12 C         143.1125  139.2620  166.8449 C.2     1  UNL1       -0.0038
     13 C         142.8445  139.0708  168.3083 C.2     1  UNL1        0.0009
     14 C         141.6014  139.6415  168.9239 C.2     1  UNL1        0.0154
     15 C         141.0730  139.6144  170.3275 C.2     1  UNL1        0.0218
     16 C         139.7713  140.3596  170.3472 C.2     1  UNL1        0.0985
     17 N         139.4953  140.8471  168.9557 N.2     1  UNL1       -0.2478
     18 C         140.6263  140.4033  168.0761 C.2     1  UNL1        0.0634
     19 C         140.8943  140.5945  166.6127 C.3     1  UNL1        0.0721
     20 C         141.9502  138.0105  158.0646 C.ar    1  UNL1       -0.0060
     21 C         142.7421  137.2913  159.1161 C.ar    1  UNL1       -0.0014
     22 C         142.9195  137.9061  160.4728 C.ar    1  UNL1        0.0173
     23 C         142.3051  139.2399  160.7780 C.ar    1  UNL1        0.0654
     24 C         141.5132  139.9591  159.7265 C.ar    1  UNL1        0.0173
     25 C         141.3358  139.3444  158.3698 C.ar    1  UNL1       -0.0014
     26 C         141.7728  137.3957  156.7079 C.3     1  UNL1        0.0992
     27 C         142.5506  134.9510  156.2975 C.3     1  UNL1        0.0899
     28 N         142.7916  136.4272  156.1843 N.3     1  UNL1       -0.2665
     29 C         144.0512  136.9350  155.5475 C.3     1  UNL1        0.0899
@<TRIPOS>BOND
     1    27    28    1
     2    28    29    1
     3    28    26    1
     4    26    20    1
     5    20    21   ar
     6    21    22   ar
     7    22    23   ar
     8    23     1    1
     9     1     2   ar
    10     2     3   ar
    11     3    11    1
    12    11    12    2
    13    12    13    1
    14    13    14    2
    15    14    15    1
    16    15    16    2
    17    16    17    1
    18    17    18    2
    19    18    19    1
    20     3     4   ar
    21     4     5   ar
    22     5     6    1
    23     5     7   ar
    24     7     8   ar
    25     8     9   ar
    26     9    10   ar
    27    23    24   ar
    28    24    25   ar
    29    25    20   ar
    30    10     1   ar
    31    19    11    1
    32    10     4   ar
    33    18    14    1
@<TRIPOS>MOLECULE
*****
 29 33 0 0 0
SMALL
GASTEIGER

@<TRIPOS>ATOM
      1 N         141.3813  142.1306  163.6314 N.ar    1  UNL1       -0.2903
      2 C         141.4578  140.8715  162.8197 C.ar    1  UNL1        0.0812
      3 C         141.1286  141.2162  161.3975 C.ar    1  UNL1        0.0177
      4 C         140.8487  142.6883  161.3301 C.ar    1  UNL1        0.0462
      5 C         140.4718  143.5871  160.1899 C.ar    1  UNL1        0.0621
      6 CL        140.3157  143.0220  158.8093 Cl      1  UNL1       -0.0821
      7 C         140.2511  145.0512  160.4304 C.ar    1  UNL1        0.0322
      8 C         140.4073  145.6163  161.8111 C.ar    1  UNL1        0.1014
      9 N         140.7842  144.7175  162.9512 N.ar    1  UNL1       -0.2264
     10 C         141.0049  143.2535  162.7107 C.ar    1  UNL1        0.1485
     11 C         141.0867  140.2571  160.2449 C.2     1  UNL1       -0.0146
     12 C         139.7862  139.6311  159.8370 C.2     1  UNL1       -0.0038
     13 C         139.7443  138.6720  158.6844 C.2     1  UNL1        0.0009
     14 C         141.0030  138.3390  157.9397 C.2     1  UNL1        0.0154
     15 C         141.2693  137.4361  156.7719 C.2     1  UNL1        0.0218
     16 C         142.7345  137.5040  156.4580 C.2     1  UNL1        0.0985
     17 N         143.3738  138.4490  157.4319 N.2     1  UNL1       -0.2478
     18 C         142.3037  138.9650  158.3476 C.2     1  UNL1        0.0634
     19 C         142.3456  139.9240  159.5002 C.3     1  UNL1        0.0721
     20 C         142.1466  142.4785  168.0522 C.ar    1  UNL1       -0.0060
     21 C         143.2988  142.3742  167.0975 C.ar    1  UNL1       -0.0014
     22 C         143.0437  142.2583  165.6239 C.ar    1  UNL1        0.0173
     23 C         141.6364  142.2466  165.1050 C.ar    1  UNL1        0.0654
     24 C         140.4841  142.3509  166.0597 C.ar    1  UNL1        0.0173
     25 C         140.7393  142.4668  167.5333 C.ar    1  UNL1       -0.0014
     26 C         142.4018  142.5945  169.5258 C.3     1  UNL1        0.0992
     27 C         140.7987  141.5765  171.2989 C.3     1  UNL1        0.0899
     28 N         142.0258  141.4687  170.4429 N.3     1  UNL1       -0.2665
     29 C         142.8770  140.2351  170.5041 C.3     1  UNL1        0.0899
@<TRIPOS>BOND
     1    27    28    1
     2    28    29    1
     3    28    26    1
     4    26    20    1
     5    20    21   ar
     6    21    22   ar
     7    22    23   ar
     8    23     1    1
     9     1     2   ar
    10     2     3   ar
    11     3    11    1
    12    11    12    2
    13    12    13    1
    14    13    14    2
    15    14    15    1
    16    15    16    2
    17    16    17    1
    18    17    18    2
    19    18    19    1
    20     3     4   ar
    21     4     5   ar
    22     5     6    1
    23     5     7   ar
    24     7     8   ar
    25     8     9   ar
    26     9    10   ar
    27    23    24   ar
    28    24    25   ar
    29    25    20   ar
    30    10     1   ar
    31    19    11    1
    32    10     4   ar
    33    18    14    1
@<TRIPOS>MOLECULE
*****
 29 33 0 0 0
SMALL
GASTEIGER

@<TRIPOS>ATOM
      1 N         141.2556  140.4852  162.5232 N.ar    1  UNL1       -0.2903
      2 C         141.6560  140.1302  163.9245 C.ar    1  UNL1        0.0812
      3 C         141.1136  141.1849  164.8428 C.ar    1  UNL1        0.0177
      4 C         140.3779  142.1917  164.0091 C.ar    1  UNL1        0.0462
      5 C         139.6394  143.4464  164.3702 C.ar    1  UNL1        0.0621
      6 CL        139.5516  143.8788  165.8038 Cl      1  UNL1       -0.0821
      7 C         138.9887  144.2686  163.2976 C.ar    1  UNL1        0.0322
      8 C         139.0764  143.8362  161.8640 C.ar    1  UNL1        0.1014
      9 N         139.8149  142.5816  161.5029 N.ar    1  UNL1       -0.2264
     10 C         140.4656  141.7593  162.5755 C.ar    1  UNL1        0.1485
     11 C         141.2779  141.2256  166.3332 C.2     1  UNL1       -0.0146
     12 C         142.3924  142.0227  166.9434 C.2     1  UNL1       -0.0038
     13 C         142.5568  142.0634  168.4338 C.2     1  UNL1        0.0009
     14 C         141.6066  141.3070  169.3141 C.2     1  UNL1        0.0154
     15 C         141.5195  141.1603  170.8043 C.2     1  UNL1        0.0218
     16 C         140.3511  140.2725  171.1153 C.2     1  UNL1        0.0985
     17 N         139.7161  139.8705  169.8171 N.2     1  UNL1       -0.2478
     18 C         140.4920  140.5099  168.7040 C.2     1  UNL1        0.0634
     19 C         140.3276  140.4691  167.2136 C.3     1  UNL1        0.0721
     20 C         142.2495  138.1399  158.8135 C.ar    1  UNL1       -0.0060
     21 C         143.3506  138.6661  159.6856 C.ar    1  UNL1       -0.0014
     22 C         143.0193  139.4479  160.9222 C.ar    1  UNL1        0.0173
     23 C         141.5869  139.7035  161.2866 C.ar    1  UNL1        0.0654
     24 C         140.4857  139.1772  160.4145 C.ar    1  UNL1        0.0173
     25 C         140.8170  138.3954  159.1779 C.ar    1  UNL1       -0.0014
     26 C         142.5808  137.3581  157.5769 C.3     1  UNL1        0.0992
     27 C         140.9300  136.4269  155.7999 C.3     1  UNL1        0.0899
     28 N         141.7716  137.5504  156.3287 N.3     1  UNL1       -0.2665
     29 C         141.8039  138.8663  155.6093 C.3     1  UNL1        0.0899
@<TRIPOS>BOND
     1    27    28    1
     2    28    29    1
     3    28    26    1
     4    26    20    1
     5    20    21   ar
     6    21    22   ar
     7    22    23   ar
     8    23     1    1
     9     1     2   ar
    10     2     3   ar
    11     3    11    1
    12    11    12    2
    13    12    13    1
    14    13    14    2
    15    14    15    1
    16    15    16    2
    17    16    17    1
    18    17    18    2
    19    18    19    1
    20     3     4   ar
    21     4     5   ar
    22     5     6    1
    23     5     7   ar
    24     7     8   ar
    25     8     9   ar
    26     9    10   ar
    27    23    24   ar
    28    24    25   ar
    29    25    20   ar
    30    10     1   ar
    31    19    11    1
    32    10     4   ar
    33    18    14    1
