@<TRIPOS>MOLECULE
*****
 24 26 0 0 0
SMALL
GASTEIGER

@<TRIPOS>ATOM
      1 C         142.1272  137.6757  161.3661 C.3     1  UNL1        0.0902
      2 N         140.9224  137.9146  162.2272 N.3     1  UNL1       -0.2639
      3 C         139.8591  138.8736  161.7799 C.3     1  UNL1        0.0994
      4 C         139.5875  140.1163  162.5748 C.ar    1  UNL1       -0.0062
      5 C         138.2142  140.3719  163.1212 C.ar    1  UNL1       -0.0032
      6 C         137.9426  141.6146  163.9161 C.ar    1  UNL1       -0.0046
      7 C         139.0444  142.6018  164.1645 C.ar    1  UNL1       -0.0228
      8 C         140.4177  142.3462  163.6181 C.ar    1  UNL1       -0.0046
      9 C         140.6893  141.1034  162.8232 C.ar    1  UNL1       -0.0032
     10 C         138.7728  143.8445  164.9594 C.3     1  UNL1        0.0189
     11 C         139.9143  143.5096  165.8730 C.3     1  UNL1        0.0044
     12 C         137.6313  144.1795  164.0457 C.3     1  UNL1        0.0044
     13 C         138.5012  145.0873  165.7542 C.3     1  UNL1        0.0044
     14 C         140.7808  137.1946  163.5354 C.3     1  UNL1        0.0994
     15 C         140.1442  137.8838  164.7058 C.ar    1  UNL1       -0.0061
     16 C         138.7183  137.5883  165.0654 C.ar    1  UNL1       -0.0029
     17 C         138.0817  138.2775  166.2358 C.ar    1  UNL1       -0.0003
     18 C         138.8711  139.2622  167.0465 C.ar    1  UNL1       -0.0000
     19 C         140.2971  139.5577  166.6869 C.ar    1  UNL1       -0.0003
     20 C         141.0864  140.5424  167.4976 C.ar    1  UNL1       -0.0000
     21 C         142.5123  140.8378  167.1380 C.ar    1  UNL1       -0.0000
     22 C         143.1489  140.1486  165.9676 C.ar    1  UNL1       -0.0000
     23 C         142.3596  139.1640  165.1569 C.ar    1  UNL1       -0.0003
     24 C         140.9337  138.8685  165.5165 C.ar    1  UNL1       -0.0027
@<TRIPOS>BOND
     1     1     2    1
     2     2     3    1
     3     3     4    1
     4     4     5   ar
     5     5     6   ar
     6     6     7   ar
     7     7    10    1
     8    10    11    1
     9    10    12    1
    10    10    13    1
    11     7     8   ar
    12     8     9   ar
    13     2    14    1
    14    14    15    1
    15    15    16   ar
    16    16    17   ar
    17    17    18   ar
    18    18    19   ar
    19    19    20   ar
    20    20    21   ar
    21    21    22   ar
    22    22    23   ar
    23    23    24   ar
    24     9     4   ar
    25    24    15   ar
    26    24    19   ar
@<TRIPOS>MOLECULE
*****
 24 26 0 0 0
SMALL
GASTEIGER

@<TRIPOS>ATOM
      1 C         142.3913  137.6547  160.8570 C.3     1  UNL1        0.0902
      2 N         141.3045  137.9549  161.8464 N.3     1  UNL1       -0.2639
      3 C         140.1538  138.8332  161.4530 C.3     1  UNL1        0.0994
      4 C         139.8249  140.0484  162.2684 C.ar    1  UNL1       -0.0062
      5 C         140.8958  141.0484  162.5897 C.ar    1  UNL1       -0.0032
      6 C         140.5669  142.2636  163.4051 C.ar    1  UNL1       -0.0046
      7 C         139.1670  142.4790  163.8992 C.ar    1  UNL1       -0.0228
      8 C         138.0961  141.4790  163.5779 C.ar    1  UNL1       -0.0046
      9 C         138.4251  140.2637  162.7624 C.ar    1  UNL1       -0.0032
     10 C         138.8381  143.6942  164.7146 C.3     1  UNL1        0.0189
     11 C         139.7810  143.2310  165.7853 C.3     1  UNL1        0.0044
     12 C         137.8952  144.1574  163.6439 C.3     1  UNL1        0.0044
     13 C         138.5092  144.9095  165.5300 C.3     1  UNL1        0.0044
     14 C         141.3683  137.3769  163.2290 C.3     1  UNL1        0.0994
     15 C         141.6743  138.2639  164.3993 C.ar    1  UNL1       -0.0061
     16 C         143.0626  138.7979  164.5929 C.ar    1  UNL1       -0.0029
     17 C         143.3686  139.6849  165.7632 C.ar    1  UNL1       -0.0003
     18 C         142.2864  140.0379  166.7399 C.ar    1  UNL1       -0.0000
     19 C         140.8980  139.5038  166.5465 C.ar    1  UNL1       -0.0003
     20 C         139.8158  139.8568  167.5232 C.ar    1  UNL1       -0.0000
     21 C         138.4275  139.3227  167.3297 C.ar    1  UNL1       -0.0000
     22 C         138.1215  138.4358  166.1594 C.ar    1  UNL1       -0.0000
     23 C         139.2038  138.0828  165.1826 C.ar    1  UNL1       -0.0003
     24 C         140.5920  138.6168  165.3761 C.ar    1  UNL1       -0.0027
@<TRIPOS>BOND
     1     1     2    1
     2     2     3    1
     3     3     4    1
     4     4     5   ar
     5     5     6   ar
     6     6     7   ar
     7     7    10    1
     8    10    11    1
     9    10    12    1
    10    10    13    1
    11     7     8   ar
    12     8     9   ar
    13     2    14    1
    14    14    15    1
    15    15    16   ar
    16    16    17   ar
    17    17    18   ar
    18    18    19   ar
    19    19    20   ar
    20    20    21   ar
    21    21    22   ar
    22    22    23   ar
    23    23    24   ar
    24     9     4   ar
    25    24    15   ar
    26    24    19   ar
@<TRIPOS>MOLECULE
*****
 24 26 0 0 0
SMALL
GASTEIGER

@<TRIPOS>ATOM
      1 C         139.6490  146.2649  161.6916 C.3     1  UNL1        0.0902
      2 N         139.6466  144.9575  162.4269 N.3     1  UNL1       -0.2639
      3 C         139.2453  143.6985  161.7170 C.3     1  UNL1        0.0994
      4 C         139.1246  142.4129  162.4803 C.ar    1  UNL1       -0.0062
      5 C         137.8686  142.1078  163.2415 C.ar    1  UNL1       -0.0032
      6 C         137.7479  140.8222  164.0049 C.ar    1  UNL1       -0.0046
      7 C         138.8832  139.8418  164.0071 C.ar    1  UNL1       -0.0228
      8 C         140.1392  140.1469  163.2459 C.ar    1  UNL1       -0.0046
      9 C         140.2598  141.4326  162.4825 C.ar    1  UNL1       -0.0032
     10 C         138.7625  138.5562  164.7704 C.3     1  UNL1        0.0189
     11 C         139.4334  137.8252  163.6455 C.3     1  UNL1        0.0044
     12 C         138.0916  139.2872  165.8953 C.3     1  UNL1        0.0044
     13 C         138.6418  137.2707  165.5338 C.3     1  UNL1        0.0044
     14 C         140.0456  144.9090  163.8720 C.3     1  UNL1        0.0994
     15 C         141.3879  144.3647  164.2617 C.ar    1  UNL1       -0.0061
     16 C         142.6289  144.8822  163.5969 C.ar    1  UNL1       -0.0029
     17 C         143.9712  144.3378  163.9866 C.ar    1  UNL1       -0.0003
     18 C         144.0725  143.2759  165.0411 C.ar    1  UNL1       -0.0000
     19 C         142.8315  142.7584  165.7060 C.ar    1  UNL1       -0.0003
     20 C         142.9328  141.6965  166.7606 C.ar    1  UNL1       -0.0000
     21 C         141.6918  141.1790  167.4254 C.ar    1  UNL1       -0.0000
     22 C         140.3495  141.7234  167.0358 C.ar    1  UNL1       -0.0000
     23 C         140.2482  142.7852  165.9812 C.ar    1  UNL1       -0.0003
     24 C         141.4892  143.3027  165.3163 C.ar    1  UNL1       -0.0027
@<TRIPOS>BOND
     1     1     2    1
     2     2     3    1
     3     3     4    1
     4     4     5   ar
     5     5     6   ar
     6     6     7   ar
     7     7    10    1
     8    10    11    1
     9    10    12    1
    10    10    13    1
    11     7     8   ar
    12     8     9   ar
    13     2    14    1
    14    14    15    1
    15    15    16   ar
    16    16    17   ar
    17    17    18   ar
    18    18    19   ar
    19    19    20   ar
    20    20    21   ar
    21    21    22   ar
    22    22    23   ar
    23    23    24   ar
    24     9     4   ar
    25    24    15   ar
    26    24    19   ar
@<TRIPOS>MOLECULE
*****
 24 26 0 0 0
SMALL
GASTEIGER

@<TRIPOS>ATOM
      1 C         144.0107  139.7504  161.8328 C.3     1  UNL1        0.0902
      2 N         143.1852  139.0828  162.8924 N.3     1  UNL1       -0.2639
      3 C         143.7491  138.8839  164.2681 C.3     1  UNL1        0.0994
      4 C         143.3084  139.7706  165.3948 C.ar    1  UNL1       -0.0062
      5 C         143.5181  141.2534  165.3083 C.ar    1  UNL1       -0.0032
      6 C         143.0774  142.1402  166.4349 C.ar    1  UNL1       -0.0046
      7 C         142.4271  141.5442  167.6482 C.ar    1  UNL1       -0.0228
      8 C         142.2174  140.0614  167.7347 C.ar    1  UNL1       -0.0046
      9 C         142.6581  139.1746  166.6079 C.ar    1  UNL1       -0.0032
     10 C         141.9864  142.4309  168.7749 C.3     1  UNL1        0.0189
     11 C         140.6461  142.5948  168.1217 C.3     1  UNL1        0.0044
     12 C         143.3267  142.2671  169.4280 C.3     1  UNL1        0.0044
     13 C         141.5457  143.3177  169.9015 C.3     1  UNL1        0.0044
     14 C         141.7958  138.6142  162.5764 C.3     1  UNL1        0.0994
     15 C         140.6886  138.8291  163.5654 C.ar    1  UNL1       -0.0061
     16 C         140.0881  137.6580  164.2850 C.ar    1  UNL1       -0.0029
     17 C         138.9809  137.8728  165.2740 C.ar    1  UNL1       -0.0003
     18 C         138.4744  139.2587  165.5434 C.ar    1  UNL1       -0.0000
     19 C         139.0750  140.4299  164.8238 C.ar    1  UNL1       -0.0003
     20 C         138.5685  141.8158  165.0933 C.ar    1  UNL1       -0.0000
     21 C         139.1691  142.9869  164.3737 C.ar    1  UNL1       -0.0000
     22 C         140.2762  142.7720  163.3847 C.ar    1  UNL1       -0.0000
     23 C         140.7827  141.3861  163.1153 C.ar    1  UNL1       -0.0003
     24 C         140.1821  140.2151  163.8348 C.ar    1  UNL1       -0.0027
@<TRIPOS>BOND
     1     1     2    1
     2     2     3    1
     3     3     4    1
     4     4     5   ar
     5     5     6   ar
     6     6     7   ar
     7     7    10    1
     8    10    11    1
     9    10    12    1
    10    10    13    1
    11     7     8   ar
    12     8     9   ar
    13     2    14    1
    14    14    15    1
    15    15    16   ar
    16    16    17   ar
    17    17    18   ar
    18    18    19   ar
    19    19    20   ar
    20    20    21   ar
    21    21    22   ar
    22    22    23   ar
    23    23    24   ar
    24     9     4   ar
    25    24    15   ar
    26    24    19   ar
@<TRIPOS>MOLECULE
*****
 24 26 0 0 0
SMALL
GASTEIGER

@<TRIPOS>ATOM
      1 C         139.6020  146.2587  161.7261 C.3     1  UNL1        0.0902
      2 N         139.6646  144.8865  162.3287 N.3     1  UNL1       -0.2639
      3 C         138.5900  144.4315  163.2713 C.3     1  UNL1        0.0994
      4 C         138.5682  143.0118  163.7547 C.ar    1  UNL1       -0.0062
      5 C         137.9446  141.9411  162.9092 C.ar    1  UNL1       -0.0032
      6 C         137.9228  140.5213  163.3926 C.ar    1  UNL1       -0.0046
      7 C         138.5247  140.1722  164.7216 C.ar    1  UNL1       -0.0228
      8 C         139.1483  141.2428  165.5670 C.ar    1  UNL1       -0.0046
      9 C         139.1700  142.6627  165.0835 C.ar    1  UNL1       -0.0032
     10 C         138.5029  138.7524  165.2050 C.3     1  UNL1        0.0189
     11 C         138.1795  139.2289  166.5900 C.3     1  UNL1        0.0044
     12 C         138.8262  138.2759  163.8200 C.3     1  UNL1        0.0044
     13 C         138.4811  137.3326  165.6884 C.3     1  UNL1        0.0044
     14 C         140.8017  143.9693  161.9887 C.3     1  UNL1        0.0994
     15 C         141.9549  143.8211  162.9364 C.ar    1  UNL1       -0.0061
     16 C         142.6713  145.0381  163.4421 C.ar    1  UNL1       -0.0029
     17 C         143.8245  144.8899  164.3898 C.ar    1  UNL1       -0.0003
     18 C         144.2613  143.5248  164.8319 C.ar    1  UNL1       -0.0000
     19 C         143.5449  142.3077  164.3263 C.ar    1  UNL1       -0.0003
     20 C         143.9817  140.9425  164.7684 C.ar    1  UNL1       -0.0000
     21 C         143.2654  139.7255  164.2627 C.ar    1  UNL1       -0.0000
     22 C         142.1122  139.8737  163.3150 C.ar    1  UNL1       -0.0000
     23 C         141.6753  141.2389  162.8729 C.ar    1  UNL1       -0.0003
     24 C         142.3917  142.4558  163.3785 C.ar    1  UNL1       -0.0027
@<TRIPOS>BOND
     1     1     2    1
     2     2     3    1
     3     3     4    1
     4     4     5   ar
     5     5     6   ar
     6     6     7   ar
     7     7    10    1
     8    10    11    1
     9    10    12    1
    10    10    13    1
    11     7     8   ar
    12     8     9   ar
    13     2    14    1
    14    14    15    1
    15    15    16   ar
    16    16    17   ar
    17    17    18   ar
    18    18    19   ar
    19    19    20   ar
    20    20    21   ar
    21    21    22   ar
    22    22    23   ar
    23    23    24   ar
    24     9     4   ar
    25    24    15   ar
    26    24    19   ar
@<TRIPOS>MOLECULE
*****
 24 26 0 0 0
SMALL
GASTEIGER

@<TRIPOS>ATOM
      1 C         138.0993  138.1895  161.9189 C.3     1  UNL1        0.0902
      2 N         138.2717  138.8631  163.2480 N.3     1  UNL1       -0.2639
      3 C         138.0062  140.3332  163.3838 C.3     1  UNL1        0.0994
      4 C         139.1494  141.2892  163.5545 C.ar    1  UNL1       -0.0062
      5 C         139.1694  142.2341  164.7193 C.ar    1  UNL1       -0.0032
      6 C         140.3126  143.1901  164.8901 C.ar    1  UNL1       -0.0046
      7 C         141.4358  143.2012  163.8959 C.ar    1  UNL1       -0.0228
      8 C         141.4159  142.2563  162.7311 C.ar    1  UNL1       -0.0046
      9 C         140.2726  141.3003  162.5604 C.ar    1  UNL1       -0.0032
     10 C         142.5790  144.1571  164.0667 C.3     1  UNL1        0.0189
     11 C         141.7827  145.2309  163.3863 C.3     1  UNL1        0.0044
     12 C         143.3753  143.0834  164.7470 C.3     1  UNL1        0.0044
     13 C         143.7222  145.1131  164.2374 C.3     1  UNL1        0.0044
     14 C         138.7096  138.0668  164.4413 C.3     1  UNL1        0.0994
     15 C         139.3735  138.7528  165.5983 C.ar    1  UNL1       -0.0061
     16 C         138.5576  139.1952  166.7766 C.ar    1  UNL1       -0.0029
     17 C         139.2215  139.8812  167.9335 C.ar    1  UNL1       -0.0003
     18 C         140.7014  140.1248  167.9122 C.ar    1  UNL1       -0.0000
     19 C         141.5174  139.6824  166.7339 C.ar    1  UNL1       -0.0003
     20 C         142.9973  139.9260  166.7125 C.ar    1  UNL1       -0.0000
     21 C         143.8133  139.4836  165.5343 C.ar    1  UNL1       -0.0000
     22 C         143.1494  138.7975  164.3773 C.ar    1  UNL1       -0.0000
     23 C         141.6695  138.5539  164.3986 C.ar    1  UNL1       -0.0003
     24 C         140.8535  138.9964  165.5769 C.ar    1  UNL1       -0.0027
@<TRIPOS>BOND
     1     1     2    1
     2     2     3    1
     3     3     4    1
     4     4     5   ar
     5     5     6   ar
     6     6     7   ar
     7     7    10    1
     8    10    11    1
     9    10    12    1
    10    10    13    1
    11     7     8   ar
    12     8     9   ar
    13     2    14    1
    14    14    15    1
    15    15    16   ar
    16    16    17   ar
    17    17    18   ar
    18    18    19   ar
    19    19    20   ar
    20    20    21   ar
    21    21    22   ar
    22    22    23   ar
    23    23    24   ar
    24     9     4   ar
    25    24    15   ar
    26    24    19   ar
@<TRIPOS>MOLECULE
*****
 24 26 0 0 0
SMALL
GASTEIGER

@<TRIPOS>ATOM
      1 C         138.4383  142.7927  161.7855 C.3     1  UNL1        0.0902
      2 N         138.5558  141.4270  162.3945 N.3     1  UNL1       -0.2639
      3 C         137.7411  141.0720  163.6029 C.3     1  UNL1        0.0994
      4 C         138.4182  140.8313  164.9196 C.ar    1  UNL1       -0.0062
      5 C         138.1646  139.5585  165.6718 C.ar    1  UNL1       -0.0032
      6 C         138.8416  139.3178  166.9884 C.ar    1  UNL1       -0.0046
      7 C         139.7723  140.3499  167.5530 C.ar    1  UNL1       -0.0228
      8 C         140.0259  141.6226  166.8008 C.ar    1  UNL1       -0.0046
      9 C         139.3488  141.8633  165.4841 C.ar    1  UNL1       -0.0032
     10 C         140.4493  140.1092  168.8697 C.3     1  UNL1        0.0189
     11 C         141.7392  139.8326  168.1558 C.3     1  UNL1        0.0044
     12 C         139.1594  140.3857  169.5835 C.3     1  UNL1        0.0044
     13 C         141.1264  139.8684  170.1863 C.3     1  UNL1        0.0044
     14 C         139.4881  140.4162  161.7951 C.3     1  UNL1        0.0994
     15 C         140.2488  139.4776  162.6840 C.ar    1  UNL1       -0.0061
     16 C         139.7807  138.0631  162.8566 C.ar    1  UNL1       -0.0029
     17 C         140.5414  137.1244  163.7456 C.ar    1  UNL1       -0.0003
     18 C         141.7703  137.6004  164.4620 C.ar    1  UNL1       -0.0000
     19 C         142.2385  139.0150  164.2894 C.ar    1  UNL1       -0.0003
     20 C         143.4673  139.4910  165.0059 C.ar    1  UNL1       -0.0000
     21 C         143.9355  140.9055  164.8333 C.ar    1  UNL1       -0.0000
     22 C         143.1747  141.8441  163.9443 C.ar    1  UNL1       -0.0000
     23 C         141.9459  141.3682  163.2279 C.ar    1  UNL1       -0.0003
     24 C         141.4777  139.9536  163.4005 C.ar    1  UNL1       -0.0027
@<TRIPOS>BOND
     1     1     2    1
     2     2     3    1
     3     3     4    1
     4     4     5   ar
     5     5     6   ar
     6     6     7   ar
     7     7    10    1
     8    10    11    1
     9    10    12    1
    10    10    13    1
    11     7     8   ar
    12     8     9   ar
    13     2    14    1
    14    14    15    1
    15    15    16   ar
    16    16    17   ar
    17    17    18   ar
    18    18    19   ar
    19    19    20   ar
    20    20    21   ar
    21    21    22   ar
    22    22    23   ar
    23    23    24   ar
    24     9     4   ar
    25    24    15   ar
    26    24    19   ar
@<TRIPOS>MOLECULE
*****
 24 26 0 0 0
SMALL
GASTEIGER

@<TRIPOS>ATOM
      1 C         142.5045  141.0435  170.2568 C.3     1  UNL1        0.0902
      2 N         142.7321  140.8152  168.7918 N.3     1  UNL1       -0.2639
      3 C         143.0562  141.9722  167.8939 C.3     1  UNL1        0.0994
      4 C         142.0372  142.4669  166.9106 C.ar    1  UNL1       -0.0062
      5 C         142.4046  142.6240  165.4648 C.ar    1  UNL1       -0.0032
      6 C         141.3856  143.1186  164.4815 C.ar    1  UNL1       -0.0046
      7 C         139.9992  143.4563  164.9440 C.ar    1  UNL1       -0.0228
      8 C         139.6318  143.2992  166.3898 C.ar    1  UNL1       -0.0046
      9 C         140.6509  142.8045  167.3731 C.ar    1  UNL1       -0.0032
     10 C         138.9802  143.9509  163.9607 C.3     1  UNL1        0.0189
     11 C         137.9862  142.9617  164.4930 C.3     1  UNL1        0.0044
     12 C         139.9741  144.9402  163.4283 C.3     1  UNL1        0.0044
     13 C         137.9612  144.4456  162.9774 C.3     1  UNL1        0.0044
     14 C         142.6356  139.4299  168.2248 C.3     1  UNL1        0.0994
     15 C         142.4260  139.2350  166.7524 C.ar    1  UNL1       -0.0061
     16 C         143.6018  138.9937  165.8529 C.ar    1  UNL1       -0.0029
     17 C         143.3922  138.7988  164.3804 C.ar    1  UNL1       -0.0003
     18 C         142.0067  138.8454  163.8075 C.ar    1  UNL1       -0.0000
     19 C         140.8308  139.0868  164.7070 C.ar    1  UNL1       -0.0003
     20 C         139.4454  139.1333  164.1340 C.ar    1  UNL1       -0.0000
     21 C         138.2695  139.3747  165.0335 C.ar    1  UNL1       -0.0000
     22 C         138.4792  139.5695  166.5060 C.ar    1  UNL1       -0.0000
     23 C         139.8646  139.5230  167.0789 C.ar    1  UNL1       -0.0003
     24 C         141.0404  139.2816  166.1794 C.ar    1  UNL1       -0.0027
@<TRIPOS>BOND
     1     1     2    1
     2     2     3    1
     3     3     4    1
     4     4     5   ar
     5     5     6   ar
     6     6     7   ar
     7     7    10    1
     8    10    11    1
     9    10    12    1
    10    10    13    1
    11     7     8   ar
    12     8     9   ar
    13     2    14    1
    14    14    15    1
    15    15    16   ar
    16    16    17   ar
    17    17    18   ar
    18    18    19   ar
    19    19    20   ar
    20    20    21   ar
    21    21    22   ar
    22    22    23   ar
    23    23    24   ar
    24     9     4   ar
    25    24    15   ar
    26    24    19   ar
@<TRIPOS>MOLECULE
*****
 24 26 0 0 0
SMALL
GASTEIGER

@<TRIPOS>ATOM
      1 C         144.0075  139.7554  160.1051 C.3     1  UNL1        0.0902
      2 N         143.5056  139.1770  161.3948 N.3     1  UNL1       -0.2639
      3 C         142.2435  138.3664  161.4124 C.3     1  UNL1        0.0994
      4 C         141.3266  138.4317  162.5977 C.ar    1  UNL1       -0.0062
      5 C         140.5510  139.6847  162.8779 C.ar    1  UNL1       -0.0032
      6 C         139.6342  139.7500  164.0632 C.ar    1  UNL1       -0.0046
      7 C         139.4929  138.5623  164.9685 C.ar    1  UNL1       -0.0228
      8 C         140.2686  137.3093  164.6884 C.ar    1  UNL1       -0.0046
      9 C         141.1855  137.2441  163.5030 C.ar    1  UNL1       -0.0032
     10 C         138.5761  138.6276  166.1539 C.3     1  UNL1        0.0189
     11 C         138.1613  137.2067  165.9113 C.3     1  UNL1        0.0044
     12 C         138.9909  140.0485  166.3964 C.3     1  UNL1        0.0044
     13 C         137.6593  138.6929  167.3392 C.3     1  UNL1        0.0044
     14 C         144.2656  139.4091  162.6669 C.3     1  UNL1        0.0994
     15 C         144.0035  140.6398  163.4834 C.ar    1  UNL1       -0.0061
     16 C         144.2295  141.9975  162.8871 C.ar    1  UNL1       -0.0029
     17 C         143.9674  143.2283  163.7036 C.ar    1  UNL1       -0.0003
     18 C         143.4793  143.1013  165.1162 C.ar    1  UNL1       -0.0000
     19 C         143.2533  141.7436  165.7125 C.ar    1  UNL1       -0.0003
     20 C         142.7653  141.6166  167.1252 C.ar    1  UNL1       -0.0000
     21 C         142.5393  140.2589  167.7214 C.ar    1  UNL1       -0.0000
     22 C         142.8015  139.0281  166.9050 C.ar    1  UNL1       -0.0000
     23 C         143.2895  139.1551  165.4923 C.ar    1  UNL1       -0.0003
     24 C         143.5155  140.5128  164.8961 C.ar    1  UNL1       -0.0027
@<TRIPOS>BOND
     1     1     2    1
     2     2     3    1
     3     3     4    1
     4     4     5   ar
     5     5     6   ar
     6     6     7   ar
     7     7    10    1
     8    10    11    1
     9    10    12    1
    10    10    13    1
    11     7     8   ar
    12     8     9   ar
    13     2    14    1
    14    14    15    1
    15    15    16   ar
    16    16    17   ar
    17    17    18   ar
    18    18    19   ar
    19    19    20   ar
    20    20    21   ar
    21    21    22   ar
    22    22    23   ar
    23    23    24   ar
    24     9     4   ar
    25    24    15   ar
    26    24    19   ar
