@<TRIPOS>MOLECULE
*****
 38 41 0 0 0
SMALL
GASTEIGER

@<TRIPOS>ATOM
      1 O         141.5080  139.5609  159.4600 O.2     1  UNL1       -0.2733
      2 C         142.8228  139.0517  158.9481 C.2     1  UNL1        0.2425
      3 N         144.0691  139.2441  159.7602 N.am    1  UNL1       -0.3032
      4 H         144.9321  138.9100  159.4242 H       1  UNL1        0.1495
      5 C         144.0007  139.9458  161.0843 C.3     1  UNL1        0.0889
      6 C         144.2682  141.4019  161.3254 C.3     1  UNL1        0.0383
      7 C         144.0856  141.6705  162.7898 C.3     1  UNL1        0.0738
      8 N         143.7051  140.3803  163.4538 N.3     1  UNL1       -0.2725
      9 C         143.6527  139.3144  162.3997 C.3     1  UNL1        0.0919
     10 C         143.4262  140.1896  164.9152 C.3     1  UNL1        0.0577
     11 C         143.5955  138.8368  165.5407 C.3     1  UNL1        0.0188
     12 C         143.3166  138.6461  167.0021 C.3     1  UNL1        0.0341
     13 C         142.8682  139.8081  167.8380 C.3     1  UNL1        0.1232
     14 O         142.8837  138.7287  168.8795 O.3     1  UNL1       -0.3812
     15 C         142.6988  141.1609  167.2125 C.3     1  UNL1        0.0341
     16 C         142.9778  141.3516  165.7511 C.3     1  UNL1        0.0188
     17 H         143.1630  137.8927  168.4745 H       1  UNL1        0.2107
     18 C         142.4252  140.5953  169.0356 C.ar    1  UNL1        0.0863
     19 C         143.1113  141.8833  169.3821 C.ar    1  UNL1        0.0377
     20 C         142.6684  142.6705  170.5798 C.ar    1  UNL1        0.1020
     21 N         141.5393  142.1695  171.4308 N.ar    1  UNL1       -0.2224
     22 C         140.8532  140.8814  171.0842 C.ar    1  UNL1        0.1986
     23 N         141.2962  140.0943  169.8866 N.ar    1  UNL1       -0.2260
     24 C         142.8913  138.3501  157.6241 C.3     1  UNL1        0.1759
     25 N         142.6318  136.8749  157.5427 N.am    1  UNL1       -0.2931
     26 C         143.4077  136.0291  156.5769 C.2     1  UNL1        0.2462
     27 O         144.4430  136.6585  155.6926 O.2     1  UNL1       -0.2701
     28 H         141.9523  136.4618  158.1231 H       1  UNL1        0.1502
     29 C         143.1482  134.5539  156.4955 C.ar    1  UNL1        0.0533
     30 C         142.0035  134.0379  155.6750 C.ar    1  UNL1        0.0045
     31 C         141.7441  132.5628  155.5936 C.ar    1  UNL1        0.0001
     32 C         142.6294  131.6037  156.3327 C.ar    1  UNL1        0.0039
     33 C         143.7742  132.1197  157.1532 C.ar    1  UNL1        0.0716
     34 C         144.0336  133.5948  157.2346 C.ar    1  UNL1        0.0084
     35 C         144.6595  131.1606  157.8923 C.3     1  UNL1        0.4186
     36 F         145.5449  130.2015  158.6314 F       1  UNL1       -0.1659
     37 F         145.6684  132.2512  158.0992 F       1  UNL1       -0.1659
     38 F         143.6507  130.0700  157.6855 F       1  UNL1       -0.1659
@<TRIPOS>BOND
     1     1     2    2
     2     2    24    1
     3    24    25    1
     4    25    26   am
     5    26    27    2
     6    26    29    1
     7    29    30   ar
     8    30    31   ar
     9    31    32   ar
    10    32    33   ar
    11    33    35    1
    12    35    36    1
    13    35    37    1
    14    35    38    1
    15    33    34   ar
    16     2     3   am
    17     5     3    1
    18     5     6    1
    19     6     7    1
    20     7     8    1
    21    10     8    1
    22    10    11    1
    23    11    12    1
    24    12    13    1
    25    13    14    1
    26    13    18    1
    27    18    19   ar
    28    19    20   ar
    29    20    21   ar
    30    21    22   ar
    31    22    23   ar
    32    13    15    1
    33    15    16    1
    34     8     9    1
    35    34    29   ar
    36     9     5    1
    37    16    10    1
    38    23    18   ar
    39    25    28    1
    40     3     4    1
    41    14    17    1
@<TRIPOS>MOLECULE
*****
 38 41 0 0 0
SMALL
GASTEIGER

@<TRIPOS>ATOM
      1 O         140.7905  140.3174  159.3999 O.2     1  UNL1       -0.2733
      2 C         141.6480  139.0884  159.3333 C.2     1  UNL1        0.2425
      3 N         141.5422  138.0414  160.4022 N.am    1  UNL1       -0.3032
      4 H         142.1050  137.2348  160.3585 H       1  UNL1        0.1495
      5 C         140.5790  138.2233  161.5376 C.3     1  UNL1        0.0889
      6 C         139.0999  137.9790  161.4869 C.3     1  UNL1        0.0383
      7 C         138.5326  138.2861  162.8410 C.3     1  UNL1        0.0738
      8 N         139.6611  138.7203  163.7288 N.3     1  UNL1       -0.2725
      9 C         140.9259  138.6814  162.9232 C.3     1  UNL1        0.0919
     10 C         139.5452  139.1226  165.1692 C.3     1  UNL1        0.0577
     11 C         138.3903  138.6358  165.9932 C.3     1  UNL1        0.0188
     12 C         138.2744  139.0382  167.4336 C.3     1  UNL1        0.0341
     13 C         139.3134  139.9273  168.0499 C.3     1  UNL1        0.1232
     14 O         138.4104  139.7249  169.2304 O.3     1  UNL1       -0.3812
     15 C         140.4684  140.4141  167.2258 C.3     1  UNL1        0.0341
     16 C         140.5843  140.0118  165.7855 C.3     1  UNL1        0.0188
     17 H         137.6695  139.1526  168.9764 H       1  UNL1        0.2107
     18 C         140.0388  140.7461  169.0762 C.ar    1  UNL1        0.0863
     19 C         140.6192  140.0839  170.2905 C.ar    1  UNL1        0.0377
     20 C         141.3446  140.9027  171.3168 C.ar    1  UNL1        0.1020
     21 N         141.4897  142.3839  171.1288 N.ar    1  UNL1       -0.2224
     22 C         140.9092  143.0461  169.9144 C.ar    1  UNL1        0.1986
     23 N         140.1838  142.2272  168.8882 N.ar    1  UNL1       -0.2260
     24 C         142.6112  138.9065  158.1980 C.3     1  UNL1        0.1759
     25 N         143.0000  137.5261  157.7581 N.am    1  UNL1       -0.2931
     26 C         142.1325  136.7744  156.7925 C.2     1  UNL1        0.2462
     27 O         140.8762  137.4031  156.2667 O.2     1  UNL1       -0.2701
     28 H         143.8245  137.1135  158.1032 H       1  UNL1        0.1502
     29 C         142.5213  135.3940  156.3527 C.ar    1  UNL1        0.0533
     30 C         141.9219  134.8063  155.1096 C.ar    1  UNL1        0.0045
     31 C         142.3107  133.4259  154.6698 C.ar    1  UNL1        0.0001
     32 C         143.2989  132.6334  155.4731 C.ar    1  UNL1        0.0039
     33 C         143.8983  133.2211  156.7161 C.ar    1  UNL1        0.0716
     34 C         143.5095  134.6014  157.1559 C.ar    1  UNL1        0.0084
     35 C         144.8866  132.4285  157.5194 C.3     1  UNL1        0.4186
     36 F         145.8748  131.6360  158.3226 F       1  UNL1       -0.1659
     37 F         144.9810  131.4226  156.4106 F       1  UNL1       -0.1659
     38 F         144.7921  133.4344  158.6281 F       1  UNL1       -0.1659
@<TRIPOS>BOND
     1     1     2    2
     2     2    24    1
     3    24    25    1
     4    25    26   am
     5    26    27    2
     6    26    29    1
     7    29    30   ar
     8    30    31   ar
     9    31    32   ar
    10    32    33   ar
    11    33    35    1
    12    35    36    1
    13    35    37    1
    14    35    38    1
    15    33    34   ar
    16     2     3   am
    17     5     3    1
    18     5     6    1
    19     6     7    1
    20     7     8    1
    21    10     8    1
    22    10    11    1
    23    11    12    1
    24    12    13    1
    25    13    14    1
    26    13    18    1
    27    18    19   ar
    28    19    20   ar
    29    20    21   ar
    30    21    22   ar
    31    22    23   ar
    32    13    15    1
    33    15    16    1
    34     8     9    1
    35    34    29   ar
    36     9     5    1
    37    16    10    1
    38    23    18   ar
    39    25    28    1
    40     3     4    1
    41    14    17    1
@<TRIPOS>MOLECULE
*****
 38 41 0 0 0
SMALL
GASTEIGER

@<TRIPOS>ATOM
      1 O         141.2792  138.4140  159.9672 O.2     1  UNL1       -0.2733
      2 C         142.5908  138.3019  159.2482 C.2     1  UNL1        0.2425
      3 N         143.8175  138.9480  159.8205 N.am    1  UNL1       -0.3032
      4 H         144.6784  138.8744  159.3486 H       1  UNL1        0.1495
      5 C         143.7326  139.7063  161.1120 C.3     1  UNL1        0.0889
      6 C         143.8802  141.1902  161.2745 C.3     1  UNL1        0.0383
      7 C         143.7241  141.5148  162.7306 C.3     1  UNL1        0.0738
      8 N         143.4799  140.2315  163.4681 N.3     1  UNL1       -0.2725
      9 C         143.4852  139.1139  162.4677 C.3     1  UNL1        0.0919
     10 C         143.2678  140.0907  164.9463 C.3     1  UNL1        0.0577
     11 C         143.4841  138.7640  165.6119 C.3     1  UNL1        0.0188
     12 C         143.2719  138.6232  167.0902 C.3     1  UNL1        0.0341
     13 C         142.8435  139.8091  167.9027 C.3     1  UNL1        0.1232
     14 O         142.9202  138.7688  168.9806 O.3     1  UNL1       -0.3812
     15 C         142.6271  141.1358  167.2370 C.3     1  UNL1        0.0341
     16 C         142.8393  141.2766  165.7588 C.3     1  UNL1        0.0188
     17 H         143.1938  137.9222  168.5940 H       1  UNL1        0.2107
     18 C         142.4416  140.6336  169.0896 C.ar    1  UNL1        0.0863
     19 C         143.0911  141.9635  169.3335 C.ar    1  UNL1        0.0377
     20 C         142.6893  142.7880  170.5204 C.ar    1  UNL1        0.1020
     21 N         141.6379  142.2826  171.4634 N.ar    1  UNL1       -0.2224
     22 C         140.9884  140.9526  171.2194 C.ar    1  UNL1        0.1986
     23 N         141.3903  140.1282  170.0325 N.ar    1  UNL1       -0.2260
     24 C         142.6757  137.5436  157.9567 C.3     1  UNL1        0.1759
     25 N         143.2493  136.1577  157.9371 N.am    1  UNL1       -0.2931
     26 C         143.1509  135.3229  156.6947 C.2     1  UNL1        0.2462
     27 O         142.4791  135.8740  155.4721 O.2     1  UNL1       -0.2701
     28 H         143.6902  135.7960  158.7395 H       1  UNL1        0.1502
     29 C         143.7245  133.9370  156.6750 C.ar    1  UNL1        0.0533
     30 C         144.4360  133.4025  157.8825 C.ar    1  UNL1        0.0045
     31 C         145.0095  132.0167  157.8628 C.ar    1  UNL1        0.0001
     32 C         144.8715  131.1653  156.6356 C.ar    1  UNL1        0.0039
     33 C         144.1600  131.6997  155.4281 C.ar    1  UNL1        0.0716
     34 C         143.5865  133.0856  155.4478 C.ar    1  UNL1        0.0084
     35 C         144.0220  130.8483  154.2009 C.3     1  UNL1        0.4186
     36 F         143.8840  129.9969  152.9736 F       1  UNL1       -0.1659
     37 F         143.2360  131.9377  153.5335 F       1  UNL1       -0.1659
     38 F         144.8079  129.7589  154.8683 F       1  UNL1       -0.1659
@<TRIPOS>BOND
     1     1     2    2
     2     2    24    1
     3    24    25    1
     4    25    26   am
     5    26    27    2
     6    26    29    1
     7    29    30   ar
     8    30    31   ar
     9    31    32   ar
    10    32    33   ar
    11    33    35    1
    12    35    36    1
    13    35    37    1
    14    35    38    1
    15    33    34   ar
    16     2     3   am
    17     5     3    1
    18     5     6    1
    19     6     7    1
    20     7     8    1
    21    10     8    1
    22    10    11    1
    23    11    12    1
    24    12    13    1
    25    13    14    1
    26    13    18    1
    27    18    19   ar
    28    19    20   ar
    29    20    21   ar
    30    21    22   ar
    31    22    23   ar
    32    13    15    1
    33    15    16    1
    34     8     9    1
    35    34    29   ar
    36     9     5    1
    37    16    10    1
    38    23    18   ar
    39    25    28    1
    40     3     4    1
    41    14    17    1
@<TRIPOS>MOLECULE
*****
 38 41 0 0 0
SMALL
GASTEIGER

@<TRIPOS>ATOM
      1 O         143.6819  140.2798  159.2302 O.2     1  UNL1       -0.2733
      2 C         142.9510  139.0352  158.8219 C.2     1  UNL1        0.2425
      3 N         142.4127  138.1043  159.8676 N.am    1  UNL1       -0.3032
      4 H         141.9329  137.2875  159.5996 H       1  UNL1        0.1495
      5 C         142.6053  138.4180  161.3218 C.3     1  UNL1        0.0889
      6 C         143.9217  138.5468  162.0291 C.3     1  UNL1        0.0383
      7 C         143.6453  138.8664  163.4684 C.3     1  UNL1        0.0738
      8 N         142.1579  138.9350  163.6506 N.3     1  UNL1       -0.2725
      9 C         141.5152  138.6579  162.3239 C.3     1  UNL1        0.0919
     10 C         141.4395  139.2291  164.9341 C.3     1  UNL1        0.0577
     11 C         140.0409  138.7287  165.1423 C.3     1  UNL1        0.0188
     12 C         139.3224  139.0228  166.4258 C.3     1  UNL1        0.0341
     13 C         140.0027  139.8173  167.5010 C.3     1  UNL1        0.1232
     14 O         138.6808  139.5620  168.1625 O.3     1  UNL1       -0.3812
     15 C         141.4013  140.3177  167.2928 C.3     1  UNL1        0.0341
     16 C         142.1197  140.0236  166.0093 C.3     1  UNL1        0.0188
     17 H         138.1169  139.0426  167.5683 H       1  UNL1        0.2107
     18 C         140.2238  140.5231  168.8060 C.ar    1  UNL1        0.0863
     19 C         140.3189  142.0196  168.8426 C.ar    1  UNL1        0.0377
     20 C         140.5401  142.7254  170.1475 C.ar    1  UNL1        0.1020
     21 N         140.6661  141.9347  171.4160 N.ar    1  UNL1       -0.2224
     22 C         140.5709  140.4381  171.3794 C.ar    1  UNL1        0.1986
     23 N         140.3498  139.7324  170.0744 N.ar    1  UNL1       -0.2260
     24 C         142.7583  138.7215  157.3678 C.3     1  UNL1        0.1759
     25 N         142.5576  137.3018  156.9269 N.am    1  UNL1       -0.2931
     26 C         143.5949  136.6257  156.0802 C.2     1  UNL1        0.2462
     27 O         144.8328  137.3691  155.6743 O.2     1  UNL1       -0.2701
     28 H         141.7451  136.8139  157.1933 H       1  UNL1        0.1502
     29 C         143.3942  135.2060  155.6394 C.ar    1  UNL1        0.0533
     30 C         142.6727  134.9137  154.3572 C.ar    1  UNL1        0.0045
     31 C         142.4720  133.4940  153.9165 C.ar    1  UNL1        0.0001
     32 C         142.9928  132.3667  154.7578 C.ar    1  UNL1        0.0039
     33 C         143.7143  132.6590  156.0400 C.ar    1  UNL1        0.0716
     34 C         143.9150  134.0787  156.4808 C.ar    1  UNL1        0.0084
     35 C         144.2352  131.5317  156.8814 C.3     1  UNL1        0.4186
     36 F         144.7560  130.4044  157.7227 F       1  UNL1       -0.1659
     37 F         145.6288  131.8234  156.4095 F       1  UNL1       -0.1659
     38 F         142.8415  131.2400  157.3532 F       1  UNL1       -0.1659
@<TRIPOS>BOND
     1     1     2    2
     2     2    24    1
     3    24    25    1
     4    25    26   am
     5    26    27    2
     6    26    29    1
     7    29    30   ar
     8    30    31   ar
     9    31    32   ar
    10    32    33   ar
    11    33    35    1
    12    35    36    1
    13    35    37    1
    14    35    38    1
    15    33    34   ar
    16     2     3   am
    17     5     3    1
    18     5     6    1
    19     6     7    1
    20     7     8    1
    21    10     8    1
    22    10    11    1
    23    11    12    1
    24    12    13    1
    25    13    14    1
    26    13    18    1
    27    18    19   ar
    28    19    20   ar
    29    20    21   ar
    30    21    22   ar
    31    22    23   ar
    32    13    15    1
    33    15    16    1
    34     8     9    1
    35    34    29   ar
    36     9     5    1
    37    16    10    1
    38    23    18   ar
    39    25    28    1
    40     3     4    1
    41    14    17    1
@<TRIPOS>MOLECULE
*****
 38 41 0 0 0
SMALL
GASTEIGER

@<TRIPOS>ATOM
      1 O         138.4822  139.4359  158.6659 O.2     1  UNL1       -0.2733
      2 C         139.8878  138.9532  158.4629 C.2     1  UNL1        0.2425
      3 N         140.7401  138.6063  159.6474 N.am    1  UNL1       -0.3032
      4 H         141.6627  138.2895  159.5141 H       1  UNL1        0.1495
      5 C         140.1869  138.7421  161.0350 C.3     1  UNL1        0.0889
      6 C         139.0630  137.9383  161.6188 C.3     1  UNL1        0.0383
      7 C         138.8420  138.4050  163.0271 C.3     1  UNL1        0.0738
      8 N         139.8293  139.4974  163.3137 N.3     1  UNL1       -0.2725
      9 C         140.6605  139.7057  162.0826 C.3     1  UNL1        0.0919
     10 C         139.9620  140.2493  164.6048 C.3     1  UNL1        0.0577
     11 C         139.9089  141.7484  164.6085 C.3     1  UNL1        0.0188
     12 C         140.0417  142.5003  165.8996 C.3     1  UNL1        0.0341
     13 C         140.2275  141.7532  167.1870 C.3     1  UNL1        0.1232
     14 O         140.2406  143.1629  167.6996 O.3     1  UNL1       -0.3812
     15 C         140.2806  140.2542  167.1833 C.3     1  UNL1        0.0341
     16 C         140.1479  139.5022  165.8922 C.3     1  UNL1        0.0188
     17 H         140.1269  143.7777  166.9580 H       1  UNL1        0.2107
     18 C         140.4179  141.4957  168.6524 C.ar    1  UNL1        0.0863
     19 C         141.3488  142.3592  169.4509 C.ar    1  UNL1        0.0377
     20 C         141.5392  142.1017  170.9164 C.ar    1  UNL1        0.1020
     21 N         140.7986  140.9806  171.5833 N.ar    1  UNL1       -0.2224
     22 C         139.8676  140.1171  170.7847 C.ar    1  UNL1        0.1986
     23 N         139.6773  140.3746  169.3193 N.ar    1  UNL1       -0.2260
     24 C         140.4410  138.8173  157.0753 C.3     1  UNL1        0.1759
     25 N         140.8379  137.4676  156.5549 N.am    1  UNL1       -0.2931
     26 C         142.1873  136.9029  156.8868 C.2     1  UNL1        0.2462
     27 O         143.1399  137.6878  157.7391 O.2     1  UNL1       -0.2701
     28 H         140.2127  136.9524  155.9955 H       1  UNL1        0.1502
     29 C         142.5841  135.5531  156.3664 C.ar    1  UNL1        0.0533
     30 C         142.0549  135.0723  155.0478 C.ar    1  UNL1        0.0045
     31 C         142.4517  133.7227  154.5275 C.ar    1  UNL1        0.0001
     32 C         143.3779  132.8537  155.3257 C.ar    1  UNL1        0.0039
     33 C         143.9072  133.3345  156.6443 C.ar    1  UNL1        0.0716
     34 C         143.5103  134.6842  157.1646 C.ar    1  UNL1        0.0084
     35 C         144.8334  132.4656  157.4425 C.3     1  UNL1        0.4186
     36 F         145.7595  131.5966  158.2408 F       1  UNL1       -0.1659
     37 F         144.9904  131.5506  156.2643 F       1  UNL1       -0.1659
     38 F         144.6763  133.3805  158.6208 F       1  UNL1       -0.1659
@<TRIPOS>BOND
     1     1     2    2
     2     2    24    1
     3    24    25    1
     4    25    26   am
     5    26    27    2
     6    26    29    1
     7    29    30   ar
     8    30    31   ar
     9    31    32   ar
    10    32    33   ar
    11    33    35    1
    12    35    36    1
    13    35    37    1
    14    35    38    1
    15    33    34   ar
    16     2     3   am
    17     5     3    1
    18     5     6    1
    19     6     7    1
    20     7     8    1
    21    10     8    1
    22    10    11    1
    23    11    12    1
    24    12    13    1
    25    13    14    1
    26    13    18    1
    27    18    19   ar
    28    19    20   ar
    29    20    21   ar
    30    21    22   ar
    31    22    23   ar
    32    13    15    1
    33    15    16    1
    34     8     9    1
    35    34    29   ar
    36     9     5    1
    37    16    10    1
    38    23    18   ar
    39    25    28    1
    40     3     4    1
    41    14    17    1
@<TRIPOS>MOLECULE
*****
 38 41 0 0 0
SMALL
GASTEIGER

@<TRIPOS>ATOM
      1 O         141.6622  140.4377  159.2886 O.2     1  UNL1       -0.2733
      2 C         142.1859  139.0871  158.8992 C.2     1  UNL1        0.2425
      3 N         142.0910  137.9400  159.8609 N.am    1  UNL1       -0.3032
      4 H         142.4347  137.0536  159.6053 H       1  UNL1        0.1495
      5 C         141.4722  138.1434  161.2122 C.3     1  UNL1        0.0889
      6 C         140.0275  137.9397  161.5601 C.3     1  UNL1        0.0383
      7 C         139.8520  138.2566  163.0157 C.3     1  UNL1        0.0738
      8 N         141.1885  138.6563  163.5675 N.3     1  UNL1       -0.2725
      9 C         142.1898  138.5863  162.4528 C.3     1  UNL1        0.0919
     10 C         141.4735  139.0557  164.9849 C.3     1  UNL1        0.0577
     11 C         142.6964  138.5342  165.6796 C.3     1  UNL1        0.0188
     12 C         142.9814  138.9337  167.0970 C.3     1  UNL1        0.0341
     13 C         142.0435  139.8545  167.8198 C.3     1  UNL1        0.1232
     14 O         143.0637  139.6252  168.8952 O.3     1  UNL1       -0.3812
     15 C         140.8206  140.3760  167.1251 C.3     1  UNL1        0.0341
     16 C         140.5356  139.9766  165.7077 C.3     1  UNL1        0.0188
     17 H         143.7546  139.0304  168.5640 H       1  UNL1        0.2107
     18 C         141.4599  140.6958  168.9161 C.ar    1  UNL1        0.0863
     19 C         141.0487  142.1111  168.6374 C.ar    1  UNL1        0.0377
     20 C         140.4652  142.9523  169.7337 C.ar    1  UNL1        0.1020
     21 N         140.2928  142.3782  171.1087 N.ar    1  UNL1       -0.2224
     22 C         140.7040  140.9628  171.3874 C.ar    1  UNL1        0.1986
     23 N         141.2876  140.1216  170.2911 N.ar    1  UNL1       -0.2260
     24 C         142.8046  138.8837  157.5480 C.3     1  UNL1        0.1759
     25 N         143.2264  137.5108  157.1152 N.am    1  UNL1       -0.2931
     26 C         142.2085  136.5465  156.5823 C.2     1  UNL1        0.2462
     27 O         140.7687  136.9552  156.4821 O.2     1  UNL1       -0.2701
     28 H         144.1714  137.2425  157.1809 H       1  UNL1        0.1502
     29 C         142.6303  135.1736  156.1496 C.ar    1  UNL1        0.0533
     30 C         142.2407  134.6615  154.7946 C.ar    1  UNL1        0.0045
     31 C         142.6625  133.2887  154.3619 C.ar    1  UNL1        0.0001
     32 C         143.4739  132.4279  155.2842 C.ar    1  UNL1        0.0039
     33 C         143.8636  132.9399  156.6391 C.ar    1  UNL1        0.0716
     34 C         143.4417  134.3128  157.0718 C.ar    1  UNL1        0.0084
     35 C         144.6750  132.0791  157.5614 C.3     1  UNL1        0.4186
     36 F         145.4864  131.2183  158.4837 F       1  UNL1       -0.1659
     37 F         144.2429  130.8592  156.8030 F       1  UNL1       -0.1659
     38 F         145.1071  133.2990  158.3198 F       1  UNL1       -0.1659
@<TRIPOS>BOND
     1     1     2    2
     2     2    24    1
     3    24    25    1
     4    25    26   am
     5    26    27    2
     6    26    29    1
     7    29    30   ar
     8    30    31   ar
     9    31    32   ar
    10    32    33   ar
    11    33    35    1
    12    35    36    1
    13    35    37    1
    14    35    38    1
    15    33    34   ar
    16     2     3   am
    17     5     3    1
    18     5     6    1
    19     6     7    1
    20     7     8    1
    21    10     8    1
    22    10    11    1
    23    11    12    1
    24    12    13    1
    25    13    14    1
    26    13    18    1
    27    18    19   ar
    28    19    20   ar
    29    20    21   ar
    30    21    22   ar
    31    22    23   ar
    32    13    15    1
    33    15    16    1
    34     8     9    1
    35    34    29   ar
    36     9     5    1
    37    16    10    1
    38    23    18   ar
    39    25    28    1
    40     3     4    1
    41    14    17    1
@<TRIPOS>MOLECULE
*****
 38 41 0 0 0
SMALL
GASTEIGER

@<TRIPOS>ATOM
      1 O         143.4873  143.2497  161.0695 O.2     1  UNL1       -0.2733
      2 C         142.0331  143.4492  161.3784 C.2     1  UNL1        0.2425
      3 N         140.9879  142.9239  160.4395 N.am    1  UNL1       -0.3032
      4 H         140.0335  143.0548  160.6423 H       1  UNL1        0.1495
      5 C         141.3970  142.1989  159.1916 C.3     1  UNL1        0.0889
      6 C         141.4997  142.7951  157.8190 C.3     1  UNL1        0.0383
      7 C         141.9413  141.7152  156.8764 C.3     1  UNL1        0.0738
      8 N         142.1115  140.4514  157.6663 N.3     1  UNL1       -0.2725
      9 C         141.7751  140.7504  159.0972 C.3     1  UNL1        0.0919
     10 C         142.5424  139.1221  157.1211 C.3     1  UNL1        0.0577
     11 C         143.6749  139.0451  156.1406 C.3     1  UNL1        0.0188
     12 C         144.1059  137.7158  155.5954 C.3     1  UNL1        0.0341
     13 C         143.4042  136.4635  156.0307 C.3     1  UNL1        0.1232
     14 O         144.4151  135.8814  155.0876 O.3     1  UNL1       -0.3812
     15 C         142.2717  136.5405  157.0112 C.3     1  UNL1        0.0341
     16 C         141.8408  137.8698  157.5564 C.3     1  UNL1        0.0188
     17 H         144.9586  136.5938  154.7162 H       1  UNL1        0.2107
     18 C         143.0537  135.0090  156.1385 C.ar    1  UNL1        0.0863
     19 C         143.8304  134.1167  157.0606 C.ar    1  UNL1        0.0377
     20 C         143.4799  132.6622  157.1684 C.ar    1  UNL1        0.1020
     21 N         142.3525  132.1001  156.3539 N.ar    1  UNL1       -0.2224
     22 C         141.5758  132.9925  155.4318 C.ar    1  UNL1        0.1986
     23 N         141.9264  134.4470  155.3241 N.ar    1  UNL1       -0.2260
     24 C         141.6240  144.1741  162.6262 C.3     1  UNL1        0.1759
     25 N         141.4213  143.4136  163.9032 N.am    1  UNL1       -0.2931
     26 C         140.1899  142.5779  164.0909 C.2     1  UNL1        0.2462
     27 O         139.1612  142.5027  163.0018 O.2     1  UNL1       -0.2701
     28 H         142.0964  143.4629  164.6180 H       1  UNL1        0.1502
     29 C         139.9871  141.8173  165.3679 C.ar    1  UNL1        0.0533
     30 C         140.5952  142.3187  166.6441 C.ar    1  UNL1        0.0045
     31 C         140.3924  141.5582  167.9209 C.ar    1  UNL1        0.0001
     32 C         139.5815  140.2963  167.9216 C.ar    1  UNL1        0.0039
     33 C         138.9734  139.7949  166.6454 C.ar    1  UNL1        0.0716
     34 C         139.1762  140.5554  165.3685 C.ar    1  UNL1        0.0084
     35 C         138.1625  138.5330  166.6460 C.3     1  UNL1        0.4186
     36 F         137.3515  137.2711  166.6467 F       1  UNL1       -0.1659
     37 F         138.7340  138.1650  165.3089 F       1  UNL1       -0.1659
     38 F         137.5909  138.9010  167.9832 F       1  UNL1       -0.1659
@<TRIPOS>BOND
     1     1     2    2
     2     2    24    1
     3    24    25    1
     4    25    26   am
     5    26    27    2
     6    26    29    1
     7    29    30   ar
     8    30    31   ar
     9    31    32   ar
    10    32    33   ar
    11    33    35    1
    12    35    36    1
    13    35    37    1
    14    35    38    1
    15    33    34   ar
    16     2     3   am
    17     5     3    1
    18     5     6    1
    19     6     7    1
    20     7     8    1
    21    10     8    1
    22    10    11    1
    23    11    12    1
    24    12    13    1
    25    13    14    1
    26    13    18    1
    27    18    19   ar
    28    19    20   ar
    29    20    21   ar
    30    21    22   ar
    31    22    23   ar
    32    13    15    1
    33    15    16    1
    34     8     9    1
    35    34    29   ar
    36     9     5    1
    37    16    10    1
    38    23    18   ar
    39    25    28    1
    40     3     4    1
    41    14    17    1
@<TRIPOS>MOLECULE
*****
 38 41 0 0 0
SMALL
GASTEIGER

@<TRIPOS>ATOM
      1 O         145.5322  142.1240  161.6966 O.2     1  UNL1       -0.2733
      2 C         144.3446  142.9386  162.1163 C.2     1  UNL1        0.2425
      3 N         143.1862  143.1134  161.1796 N.am    1  UNL1       -0.3032
      4 H         142.4068  143.6480  161.4550 H       1  UNL1        0.1495
      5 C         143.2153  142.4736  159.8231 C.3     1  UNL1        0.0889
      6 C         143.1985  143.1943  158.5078 C.3     1  UNL1        0.0383
      7 C         143.2391  142.1669  157.4157 C.3     1  UNL1        0.0738
      8 N         143.2810  140.8111  158.0561 N.3     1  UNL1       -0.2725
      9 C         143.2663  141.0006  159.5439 C.3     1  UNL1        0.0919
     10 C         143.3292  139.4966  157.3351 C.3     1  UNL1        0.0577
     11 C         143.9570  139.4094  155.9756 C.3     1  UNL1        0.0188
     12 C         144.0052  138.0949  155.2547 C.3     1  UNL1        0.0341
     13 C         143.4255  136.8676  155.8933 C.3     1  UNL1        0.1232
     14 O         143.9105  136.2837  154.5995 O.3     1  UNL1       -0.3812
     15 C         142.7977  136.9548  157.2528 C.3     1  UNL1        0.0341
     16 C         142.7496  138.2693  157.9737 C.3     1  UNL1        0.0188
     17 H         144.3218  136.9805  154.0644 H       1  UNL1        0.2107
     18 C         143.0144  135.4375  156.0825 C.ar    1  UNL1        0.0863
     19 C         143.6950  134.5921  157.1179 C.ar    1  UNL1        0.0377
     20 C         143.2838  133.1620  157.3071 C.ar    1  UNL1        0.1020
     21 N         142.1919  132.5773  156.4609 N.ar    1  UNL1       -0.2224
     22 C         141.5113  133.4228  155.4255 C.ar    1  UNL1        0.1986
     23 N         141.9225  134.8529  155.2364 N.ar    1  UNL1       -0.2260
     24 C         144.3155  143.5783  163.4726 C.3     1  UNL1        0.1759
     25 N         143.9300  142.7692  164.6755 N.am    1  UNL1       -0.2931
     26 C         142.4932  142.6934  165.0993 C.2     1  UNL1        0.2462
     27 O         141.4417  143.4267  164.3204 O.2     1  UNL1       -0.2701
     28 H         144.6201  142.2878  165.1867 H       1  UNL1        0.1502
     29 C         142.1077  141.8842  166.3022 C.ar    1  UNL1        0.0533
     30 C         142.5564  140.4579  166.4218 C.ar    1  UNL1        0.0045
     31 C         142.1709  139.6489  167.6246 C.ar    1  UNL1        0.0001
     32 C         141.3367  140.2661  168.7077 C.ar    1  UNL1        0.0039
     33 C         140.8881  141.6923  168.5881 C.ar    1  UNL1        0.0716
     34 C         141.2735  142.5014  167.3853 C.ar    1  UNL1        0.0084
     35 C         140.0539  142.3095  169.6713 C.3     1  UNL1        0.4186
     36 F         139.2198  142.9267  170.7545 F       1  UNL1       -0.1659
     37 F         140.7241  143.6305  169.4347 F       1  UNL1       -0.1659
     38 F         139.3838  140.9886  169.9079 F       1  UNL1       -0.1659
@<TRIPOS>BOND
     1     1     2    2
     2     2    24    1
     3    24    25    1
     4    25    26   am
     5    26    27    2
     6    26    29    1
     7    29    30   ar
     8    30    31   ar
     9    31    32   ar
    10    32    33   ar
    11    33    35    1
    12    35    36    1
    13    35    37    1
    14    35    38    1
    15    33    34   ar
    16     2     3   am
    17     5     3    1
    18     5     6    1
    19     6     7    1
    20     7     8    1
    21    10     8    1
    22    10    11    1
    23    11    12    1
    24    12    13    1
    25    13    14    1
    26    13    18    1
    27    18    19   ar
    28    19    20   ar
    29    20    21   ar
    30    21    22   ar
    31    22    23   ar
    32    13    15    1
    33    15    16    1
    34     8     9    1
    35    34    29   ar
    36     9     5    1
    37    16    10    1
    38    23    18   ar
    39    25    28    1
    40     3     4    1
    41    14    17    1
@<TRIPOS>MOLECULE
*****
 38 41 0 0 0
SMALL
GASTEIGER

@<TRIPOS>ATOM
      1 O         144.1180  142.9638  159.1983 O.2     1  UNL1       -0.2733
      2 C         142.8948  142.9039  158.3322 C.2     1  UNL1        0.2425
      3 N         141.5572  143.2811  158.8963 N.am    1  UNL1       -0.3032
      4 H         140.7544  143.2417  158.3278 H       1  UNL1        0.1495
      5 C         141.4426  143.7183  160.3267 C.3     1  UNL1        0.0889
      6 C         141.1087  145.1013  160.8018 C.3     1  UNL1        0.0383
      7 C         141.1016  145.0870  162.3017 C.3     1  UNL1        0.0738
      8 N         141.4312  143.6951  162.7536 N.3     1  UNL1       -0.2725
      9 C         141.6420  142.8492  161.5329 C.3     1  UNL1        0.0919
     10 C         141.5323  143.2307  164.1763 C.3     1  UNL1        0.0577
     11 C         142.8664  142.8536  164.7491 C.3     1  UNL1        0.0188
     12 C         142.9675  142.3892  166.1718 C.3     1  UNL1        0.0341
     13 C         141.7345  142.3019  167.0217 C.3     1  UNL1        0.1232
     14 O         142.7647  141.8386  168.0087 O.3     1  UNL1       -0.3812
     15 C         140.4005  142.6789  166.4488 C.3     1  UNL1        0.0341
     16 C         140.2994  143.1433  165.0262 C.3     1  UNL1        0.0188
     17 H         143.6392  141.8426  167.5892 H       1  UNL1        0.2107
     18 C         140.8593  142.0536  168.2144 C.ar    1  UNL1        0.0863
     19 C         140.6845  143.1227  169.2518 C.ar    1  UNL1        0.0377
     20 C         139.8093  142.8745  170.4445 C.ar    1  UNL1        0.1020
     21 N         139.1090  141.5570  170.5997 N.ar    1  UNL1       -0.2224
     22 C         139.2839  140.4879  169.5621 C.ar    1  UNL1        0.1986
     23 N         140.1591  140.7362  168.3695 N.ar    1  UNL1       -0.2260
     24 C         143.0093  142.4667  156.9019 C.3     1  UNL1        0.1759
     25 N         144.1170  142.9984  156.0415 N.am    1  UNL1       -0.2931
     26 C         145.3576  142.1830  155.8272 C.2     1  UNL1        0.2462
     27 O         145.4906  140.8358  156.4734 O.2     1  UNL1       -0.2701
     28 H         144.0298  143.8826  155.6173 H       1  UNL1        0.1502
     29 C         146.4654  142.7147  154.9667 C.ar    1  UNL1        0.0533
     30 C         146.1908  143.8163  153.9865 C.ar    1  UNL1        0.0045
     31 C         147.2985  144.3479  153.1261 C.ar    1  UNL1        0.0001
     32 C         148.6807  143.7780  153.2460 C.ar    1  UNL1        0.0039
     33 C         148.9554  142.6763  154.2262 C.ar    1  UNL1        0.0716
     34 C         147.8477  142.1447  155.0866 C.ar    1  UNL1        0.0084
     35 C         150.3377  142.1063  154.3461 C.3     1  UNL1        0.4186
     36 F         151.7199  141.5363  154.4659 F       1  UNL1       -0.1659
     37 F         149.8091  141.0086  155.2211 F       1  UNL1       -0.1659
     38 F         150.8662  143.2041  153.4711 F       1  UNL1       -0.1659
@<TRIPOS>BOND
     1     1     2    2
     2     2    24    1
     3    24    25    1
     4    25    26   am
     5    26    27    2
     6    26    29    1
     7    29    30   ar
     8    30    31   ar
     9    31    32   ar
    10    32    33   ar
    11    33    35    1
    12    35    36    1
    13    35    37    1
    14    35    38    1
    15    33    34   ar
    16     2     3   am
    17     5     3    1
    18     5     6    1
    19     6     7    1
    20     7     8    1
    21    10     8    1
    22    10    11    1
    23    11    12    1
    24    12    13    1
    25    13    14    1
    26    13    18    1
    27    18    19   ar
    28    19    20   ar
    29    20    21   ar
    30    21    22   ar
    31    22    23   ar
    32    13    15    1
    33    15    16    1
    34     8     9    1
    35    34    29   ar
    36     9     5    1
    37    16    10    1
    38    23    18   ar
    39    25    28    1
    40     3     4    1
    41    14    17    1
