@<TRIPOS>MOLECULE
*****
 36 40 0 0 0
SMALL
GASTEIGER

@<TRIPOS>ATOM
      1 C         143.7307  137.6400  166.8395 C.3     1  UNL1        0.0323
      2 C         142.9494  138.9137  166.7084 C.ar    1  UNL1       -0.0060
      3 C         142.4367  139.7540  167.8402 C.ar    1  UNL1        0.0438
      4 C         141.7141  140.9304  167.2538 C.ar    1  UNL1        0.0435
      5 N         141.7802  140.8172  165.7596 N.ar    1  UNL1       -0.3137
      6 C         142.5436  139.5709  165.4225 C.ar    1  UNL1        0.0372
      7 C         143.1156  138.6345  164.3998 C.3     1  UNL1        0.0452
      8 C         143.3427  138.2589  162.9654 C.3     1  UNL1        0.0236
      9 C         143.1642  138.5449  161.5037 C.3     1  UNL1        0.0726
     10 N         142.6278  139.4157  160.4065 N.3     1  UNL1       -0.2682
     11 C         143.1998  138.4793  159.3838 C.3     1  UNL1        0.1046
     12 C         143.0212  138.7652  157.9222 C.3     1  UNL1        0.1595
     13 O         142.2708  139.9876  157.4833 O.3     1  UNL1       -0.3508
     14 C         141.6988  140.9240  158.5060 C.3     1  UNL1        0.1598
     15 C         141.8774  140.6380  159.9676 C.3     1  UNL1        0.1071
     16 C         141.1139  141.8844  160.3047 C.3     1  UNL1        0.1058
     17 N         140.5420  142.8208  161.3275 N.pl3   1  UNL1       -0.3313
     18 C         140.3148  143.1964  162.7619 C.ar    1  UNL1        0.0505
     19 C         140.4934  142.9104  164.2235 C.ar    1  UNL1        0.0319
     20 C         141.0297  142.0396  165.3207 C.ar    1  UNL1        0.0646
     21 C         140.2645  143.2892  165.7600 C.ar    1  UNL1        0.0177
     22 C         139.5984  144.3727  164.9648 C.ar    1  UNL1        0.0072
     23 C         139.6236  144.3263  163.4657 C.ar    1  UNL1        0.0663
     24 C         141.0892  141.9527  168.1564 C.3     1  UNL1        0.0446
     25 C         141.1869  141.7986  169.6452 C.3     1  UNL1        0.0128
     26 C         141.0127  142.0880  171.1066 C.3     1  UNL1        0.0008
     27 C         140.4038  143.0755  169.5664 C.3     1  UNL1        0.0008
     28 C         141.9095  140.6222  170.2316 C.3     1  UNL1        0.0695
     29 C         142.5344  139.5998  169.3291 C.2     1  UNL1        0.1739
     30 O         143.2570  138.4235  169.9155 O.2     1  UNL1       -0.2913
     31 H         140.1048  143.5320  160.8056 H       1  UNL1        0.1469
     32 C         138.9574  145.4098  162.6706 C.2     1  UNL1        0.2439
     33 N         139.7692  146.5477  162.1263 N.am    1  UNL1       -0.3253
     34 O         137.4796  145.3554  162.4198 O.2     1  UNL1       -0.2703
     35 H         140.7392  146.5833  162.2910 H       1  UNL1        0.1453
     36 H         139.3321  147.2588  161.6044 H       1  UNL1        0.1453
@<TRIPOS>BOND
     1     1     2    1
     2     2     3   ar
     3     3     4   ar
     4     4     5   ar
     5     5     6   ar
     6     6     7    1
     7     7     8    1
     8     8     9    1
     9     9    10    1
    10    10    11    1
    11    11    12    1
    12    12    13    1
    13    13    14    1
    14    15    14    1
    15    15    16    1
    16    16    17    1
    17    17    18    1
    18    18    19   ar
    19    19    20   ar
    20    20    21   ar
    21    21    22   ar
    22    22    23   ar
    23    23    32    1
    24    32    33   am
    25    32    34    2
    26     4    24    1
    27    24    25    1
    28    25    26    1
    29    25    27    1
    30    25    28    1
    31    28    29    1
    32    29    30    2
    33     6     2   ar
    34    15    10    1
    35    23    18   ar
    36    29     3    1
    37    20     5    1
    38    17    31    1
    39    33    35    1
    40    33    36    1
@<TRIPOS>MOLECULE
*****
 36 40 0 0 0
SMALL
GASTEIGER

@<TRIPOS>ATOM
      1 C         137.5856  137.9785  166.6959 C.3     1  UNL1        0.0323
      2 C         138.5785  139.0964  166.5759 C.ar    1  UNL1       -0.0060
      3 C         139.0455  139.9845  167.6908 C.ar    1  UNL1        0.0438
      4 C         140.0344  140.9594  167.1238 C.ar    1  UNL1        0.0435
      5 N         140.1787  140.6738  165.6583 N.ar    1  UNL1       -0.3137
      6 C         139.2789  139.5225  165.3196 C.ar    1  UNL1        0.0372
      7 C         138.7217  138.5623  164.3110 C.3     1  UNL1        0.0452
      8 C         138.6563  138.0505  162.9025 C.3     1  UNL1        0.0236
      9 C         139.1004  138.1243  161.4716 C.3     1  UNL1        0.0726
     10 N         139.9348  138.7639  160.4017 N.3     1  UNL1       -0.2682
     11 C         139.3775  137.8037  159.3930 C.3     1  UNL1        0.1046
     12 C         139.8216  137.8776  157.9622 C.3     1  UNL1        0.1595
     13 O         140.8228  138.9116  157.5400 O.3     1  UNL1       -0.3508
     14 C         141.3801  139.8718  158.5487 C.3     1  UNL1        0.1598
     15 C         140.9360  139.7980  159.9795 C.3     1  UNL1        0.1071
     16 C         141.8358  140.9493  160.3182 C.3     1  UNL1        0.1058
     17 N         142.3930  141.9096  161.3270 N.pl3   1  UNL1       -0.3313
     18 C         142.4584  142.4213  162.7354 C.ar    1  UNL1        0.0505
     19 C         142.0144  142.3475  164.1663 C.ar    1  UNL1        0.0319
     20 C         141.1800  141.7079  165.2361 C.ar    1  UNL1        0.0646
     21 C         142.0664  142.8747  165.6750 C.ar    1  UNL1        0.0177
     22 C         143.0166  143.7411  164.9026 C.ar    1  UNL1        0.0072
     23 C         143.2126  143.5144  163.4328 C.ar    1  UNL1        0.0663
     24 C         140.6759  141.9812  168.0152 C.3     1  UNL1        0.0446
     25 C         140.3283  142.0281  169.4736 C.3     1  UNL1        0.0128
     26 C         140.3237  142.4665  170.9080 C.3     1  UNL1        0.0008
     27 C         141.3156  143.1553  169.4047 C.3     1  UNL1        0.0008
     28 C         139.3394  141.0532  170.0407 C.3     1  UNL1        0.0695
     29 C         138.6979  140.0314  169.1493 C.2     1  UNL1        0.1739
     30 O         137.7091  139.0565  169.7163 O.2     1  UNL1       -0.2913
     31 H         143.0167  142.4782  160.8201 H       1  UNL1        0.1469
     32 C         144.1629  144.3808  162.6605 C.2     1  UNL1        0.2439
     33 N         144.2412  145.8506  162.9492 N.am    1  UNL1       -0.3253
     34 O         145.0347  143.7772  161.5995 O.2     1  UNL1       -0.2703
     35 H         143.6690  146.2467  163.6456 H       1  UNL1        0.1453
     36 H         144.8649  146.4193  162.4423 H       1  UNL1        0.1453
@<TRIPOS>BOND
     1     1     2    1
     2     2     3   ar
     3     3     4   ar
     4     4     5   ar
     5     5     6   ar
     6     6     7    1
     7     7     8    1
     8     8     9    1
     9     9    10    1
    10    10    11    1
    11    11    12    1
    12    12    13    1
    13    13    14    1
    14    15    14    1
    15    15    16    1
    16    16    17    1
    17    17    18    1
    18    18    19   ar
    19    19    20   ar
    20    20    21   ar
    21    21    22   ar
    22    22    23   ar
    23    23    32    1
    24    32    33   am
    25    32    34    2
    26     4    24    1
    27    24    25    1
    28    25    26    1
    29    25    27    1
    30    25    28    1
    31    28    29    1
    32    29    30    2
    33     6     2   ar
    34    15    10    1
    35    23    18   ar
    36    29     3    1
    37    20     5    1
    38    17    31    1
    39    33    35    1
    40    33    36    1
@<TRIPOS>MOLECULE
*****
 36 40 0 0 0
SMALL
GASTEIGER

@<TRIPOS>ATOM
      1 C         142.0124  144.6573  163.7425 C.3     1  UNL1        0.0323
      2 C         141.7866  143.3329  163.0754 C.ar    1  UNL1       -0.0060
      3 C         141.9817  141.9848  163.7033 C.ar    1  UNL1        0.0438
      4 C         141.6417  140.9428  162.6792 C.ar    1  UNL1        0.0435
      5 N         141.2366  141.6470  161.4183 N.ar    1  UNL1       -0.3137
      6 C         141.3261  143.1242  161.6631 C.ar    1  UNL1        0.0372
      7 C         141.1760  144.5337  161.1725 C.3     1  UNL1        0.0452
      8 C         140.8266  145.4979  160.0778 C.3     1  UNL1        0.0236
      9 C         140.3715  145.7584  158.6724 C.3     1  UNL1        0.0726
     10 N         139.9326  145.2455  157.3330 N.3     1  UNL1       -0.2682
     11 C         139.7826  146.6550  156.8424 C.3     1  UNL1        0.1046
     12 C         139.3275  146.9155  155.4371 C.3     1  UNL1        0.1595
     13 O         139.0224  145.7664  154.5224 O.3     1  UNL1       -0.3508
     14 C         139.1724  144.3569  155.0130 C.3     1  UNL1        0.1598
     15 C         139.6275  144.0964  156.4183 C.3     1  UNL1        0.1071
     16 C         139.5380  142.6193  156.1735 C.3     1  UNL1        0.1058
     17 N         139.6881  141.2097  156.6641 N.pl3   1  UNL1       -0.3313
     18 C         140.0375  140.2455  157.7588 C.ar    1  UNL1        0.0505
     19 C         140.4926  139.9851  159.1641 C.ar    1  UNL1        0.0319
     20 C         140.9315  140.4980  160.5036 C.ar    1  UNL1        0.0646
     21 C         140.8704  138.9776  160.3469 C.ar    1  UNL1        0.0177
     22 C         140.4852  138.1173  159.1800 C.ar    1  UNL1        0.0072
     23 C         140.0688  138.7513  157.8859 C.ar    1  UNL1        0.0663
     24 C         141.7451  139.4873  163.0272 C.3     1  UNL1        0.0446
     25 C         142.1884  139.0738  164.3992 C.3     1  UNL1        0.0128
     26 C         142.5582  138.1921  165.5549 C.3     1  UNL1        0.0008
     27 C         141.9769  137.7257  163.7765 C.3     1  UNL1        0.0008
     28 C         142.5283  140.1158  165.4233 C.3     1  UNL1        0.0695
     29 C         142.4250  141.5713  165.0754 C.2     1  UNL1        0.1739
     30 O         142.7649  142.6131  166.0994 O.2     1  UNL1       -0.2913
     31 H         139.4353  140.6451  155.8983 H       1  UNL1        0.1469
     32 C         139.6837  137.8909  156.7191 C.2     1  UNL1        0.2439
     33 N         140.4407  136.6271  156.4370 N.am    1  UNL1       -0.3253
     34 O         138.5415  138.2945  155.8344 O.2     1  UNL1       -0.2703
     35 H         141.1903  136.3623  157.0177 H       1  UNL1        0.1453
     36 H         140.1880  136.0624  155.6712 H       1  UNL1        0.1453
@<TRIPOS>BOND
     1     1     2    1
     2     2     3   ar
     3     3     4   ar
     4     4     5   ar
     5     5     6   ar
     6     6     7    1
     7     7     8    1
     8     8     9    1
     9     9    10    1
    10    10    11    1
    11    11    12    1
    12    12    13    1
    13    13    14    1
    14    15    14    1
    15    15    16    1
    16    16    17    1
    17    17    18    1
    18    18    19   ar
    19    19    20   ar
    20    20    21   ar
    21    21    22   ar
    22    22    23   ar
    23    23    32    1
    24    32    33   am
    25    32    34    2
    26     4    24    1
    27    24    25    1
    28    25    26    1
    29    25    27    1
    30    25    28    1
    31    28    29    1
    32    29    30    2
    33     6     2   ar
    34    15    10    1
    35    23    18   ar
    36    29     3    1
    37    20     5    1
    38    17    31    1
    39    33    35    1
    40    33    36    1
@<TRIPOS>MOLECULE
*****
 36 40 0 0 0
SMALL
GASTEIGER

@<TRIPOS>ATOM
      1 C         144.8269  141.5840  161.6523 C.3     1  UNL1        0.0323
      2 C         143.7689  142.5024  161.1163 C.ar    1  UNL1       -0.0060
      3 C         142.6619  143.1304  161.9101 C.ar    1  UNL1        0.0438
      4 C         141.8410  143.9701  160.9767 C.ar    1  UNL1        0.0435
      5 N         142.4407  143.8610  159.6062 N.ar    1  UNL1       -0.3137
      6 C         143.6322  142.9539  159.6924 C.ar    1  UNL1        0.0372
      7 C         144.7858  142.2584  159.0326 C.3     1  UNL1        0.0452
      8 C         145.5923  141.9608  157.8034 C.3     1  UNL1        0.0236
      9 C         145.8357  142.1408  156.3342 C.3     1  UNL1        0.0726
     10 N         145.4508  142.7502  155.0188 N.3     1  UNL1       -0.2682
     11 C         146.6044  142.0547  154.3590 C.3     1  UNL1        0.1046
     12 C         146.8478  142.2347  152.8899 C.3     1  UNL1        0.1595
     13 O         145.9376  143.1103  152.0806 O.3     1  UNL1       -0.3508
     14 C         144.7840  143.8058  152.7404 C.3     1  UNL1        0.1598
     15 C         144.5406  143.6258  154.2095 C.3     1  UNL1        0.1071
     16 C         143.3491  144.5329  154.1233 C.3     1  UNL1        0.1058
     17 N         142.1955  145.2284  154.7832 N.pl3   1  UNL1       -0.3313
     18 C         141.3889  145.5261  156.0124 C.ar    1  UNL1        0.0505
     19 C         141.1455  145.3460  157.4815 C.ar    1  UNL1        0.0319
     20 C         141.5305  144.7366  158.7969 C.ar    1  UNL1        0.0646
     21 C         140.3019  145.6478  158.8059 C.ar    1  UNL1        0.0177
     22 C         139.6315  146.4165  157.7060 C.ar    1  UNL1        0.0072
     23 C         140.1750  146.3557  156.3093 C.ar    1  UNL1        0.0663
     24 C         140.6534  144.7255  161.4955 C.3     1  UNL1        0.0446
     25 C         140.2868  144.6413  162.9476 C.3     1  UNL1        0.0128
     26 C         139.5457  144.8771  164.2302 C.3     1  UNL1        0.0008
     27 C         139.2086  145.5629  162.4598 C.3     1  UNL1        0.0008
     28 C         141.1077  143.8016  163.8809 C.3     1  UNL1        0.0695
     29 C         142.2953  143.0462  163.3621 C.2     1  UNL1        0.1739
     30 O         143.1162  142.2065  164.2954 O.2     1  UNL1       -0.2913
     31 H         141.7554  145.7330  154.0614 H       1  UNL1        0.1469
     32 C         139.5045  147.1244  155.2095 C.2     1  UNL1        0.2439
     33 N         138.0872  146.8109  154.8315 N.am    1  UNL1       -0.3253
     34 O         140.2515  148.2065  154.4877 O.2     1  UNL1       -0.2703
     35 H         137.5970  146.1006  155.3053 H       1  UNL1        0.1453
     36 H         137.6471  147.3154  154.1097 H       1  UNL1        0.1453
@<TRIPOS>BOND
     1     1     2    1
     2     2     3   ar
     3     3     4   ar
     4     4     5   ar
     5     5     6   ar
     6     6     7    1
     7     7     8    1
     8     8     9    1
     9     9    10    1
    10    10    11    1
    11    11    12    1
    12    12    13    1
    13    13    14    1
    14    15    14    1
    15    15    16    1
    16    16    17    1
    17    17    18    1
    18    18    19   ar
    19    19    20   ar
    20    20    21   ar
    21    21    22   ar
    22    22    23   ar
    23    23    32    1
    24    32    33   am
    25    32    34    2
    26     4    24    1
    27    24    25    1
    28    25    26    1
    29    25    27    1
    30    25    28    1
    31    28    29    1
    32    29    30    2
    33     6     2   ar
    34    15    10    1
    35    23    18   ar
    36    29     3    1
    37    20     5    1
    38    17    31    1
    39    33    35    1
    40    33    36    1
@<TRIPOS>MOLECULE
*****
 36 40 0 0 0
SMALL
GASTEIGER

@<TRIPOS>ATOM
      1 C         141.4444  137.7762  164.0000 C.3     1  UNL1        0.0323
      2 C         141.2803  139.1890  163.5237 C.ar    1  UNL1       -0.0060
      3 C         140.8690  140.3609  164.3648 C.ar    1  UNL1        0.0438
      4 C         140.8332  141.5742  163.4835 C.ar    1  UNL1        0.0435
      5 N         141.2224  141.1522  162.0978 N.ar    1  UNL1       -0.3137
      6 C         141.4988  139.6781  162.1226 C.ar    1  UNL1        0.0372
      7 C         141.8978  138.4191  161.4115 C.3     1  UNL1        0.0452
      8 C         142.3127  137.7126  160.1551 C.3     1  UNL1        0.0236
      9 C         142.6322  137.7478  158.6898 C.3     1  UNL1        0.0726
     10 N         142.7707  138.5153  157.4086 N.3     1  UNL1       -0.2682
     11 C         143.1698  137.2563  156.6975 C.3     1  UNL1        0.1046
     12 C         143.4893  137.2916  155.2324 C.3     1  UNL1        0.1595
     13 O         143.4097  138.5858  154.4783 O.3     1  UNL1       -0.3508
     14 C         143.0107  139.8448  155.1894 C.3     1  UNL1        0.1598
     15 C         142.6912  139.8096  156.6545 C.3     1  UNL1        0.1071
     16 C         142.4148  141.2836  156.6297 C.3     1  UNL1        0.1058
     17 N         142.0157  142.5427  157.3409 N.pl3   1  UNL1       -0.3313
     18 C         141.6009  143.2492  158.5973 C.ar    1  UNL1        0.0505
     19 C         141.2814  143.2140  160.0624 C.ar    1  UNL1        0.0319
     20 C         141.1429  142.4465  161.3437 C.ar    1  UNL1        0.0646
     21 C         140.8406  143.9443  161.4149 C.ar    1  UNL1        0.0177
     22 C         140.8711  145.0115  160.3613 C.ar    1  UNL1        0.0072
     23 C         141.2513  144.6640  158.9525 C.ar    1  UNL1        0.0663
     24 C         140.4508  142.9066  164.0568 C.3     1  UNL1        0.0446
     25 C         140.1041  143.0257  165.5114 C.3     1  UNL1        0.0128
     26 C         139.6958  143.6402  166.8173 C.3     1  UNL1        0.0008
     27 C         139.9266  144.4523  165.0837 C.3     1  UNL1        0.0008
     28 C         140.1399  141.8124  166.3927 C.3     1  UNL1        0.0695
     29 C         140.5223  140.4800  165.8193 C.2     1  UNL1        0.1739
     30 O         140.5581  139.2667  166.7006 O.2     1  UNL1       -0.2913
     31 H         142.0358  143.2432  156.6494 H       1  UNL1        0.1469
     32 C         141.2818  145.7313  157.8989 C.2     1  UNL1        0.2439
     33 N         142.5893  146.3373  157.4829 N.am    1  UNL1       -0.3253
     34 O         140.0047  146.1925  157.2614 O.2     1  UNL1       -0.2703
     35 H         143.4275  146.0345  157.9014 H       1  UNL1        0.1453
     36 H         142.6094  147.0378  156.7915 H       1  UNL1        0.1453
@<TRIPOS>BOND
     1     1     2    1
     2     2     3   ar
     3     3     4   ar
     4     4     5   ar
     5     5     6   ar
     6     6     7    1
     7     7     8    1
     8     8     9    1
     9     9    10    1
    10    10    11    1
    11    11    12    1
    12    12    13    1
    13    13    14    1
    14    15    14    1
    15    15    16    1
    16    16    17    1
    17    17    18    1
    18    18    19   ar
    19    19    20   ar
    20    20    21   ar
    21    21    22   ar
    22    22    23   ar
    23    23    32    1
    24    32    33   am
    25    32    34    2
    26     4    24    1
    27    24    25    1
    28    25    26    1
    29    25    27    1
    30    25    28    1
    31    28    29    1
    32    29    30    2
    33     6     2   ar
    34    15    10    1
    35    23    18   ar
    36    29     3    1
    37    20     5    1
    38    17    31    1
    39    33    35    1
    40    33    36    1
@<TRIPOS>MOLECULE
*****
 36 40 0 0 0
SMALL
GASTEIGER

@<TRIPOS>ATOM
      1 C         144.1031  138.0120  161.7107 C.3     1  UNL1        0.0323
      2 C         143.6144  139.3900  161.3756 C.ar    1  UNL1       -0.0060
      3 C         143.7783  140.6147  162.2261 C.ar    1  UNL1        0.0438
      4 C         143.1412  141.7669  161.5073 C.ar    1  UNL1        0.0435
      5 N         142.5836  141.2543  160.2126 N.ar    1  UNL1       -0.3137
      6 C         142.8760  139.7854  160.1312 C.ar    1  UNL1        0.0372
      7 C         142.7886  138.4824  159.3933 C.3     1  UNL1        0.0452
      8 C         142.3447  137.6945  158.1965 C.3     1  UNL1        0.0236
      9 C         141.6634  137.6328  156.8616 C.3     1  UNL1        0.0726
     10 N         140.9271  138.3138  155.7462 N.3     1  UNL1       -0.2682
     11 C         140.8397  137.0108  155.0083 C.3     1  UNL1        0.1046
     12 C         140.1583  136.9492  153.6734 C.3     1  UNL1        0.1595
     13 O         139.5644  138.1905  153.0765 O.3     1  UNL1       -0.3508
     14 C         139.6518  139.4935  153.8144 C.3     1  UNL1        0.1598
     15 C         140.3332  139.5551  155.1492 C.3     1  UNL1        0.1071
     16 C         140.0408  141.0241  155.2306 C.3     1  UNL1        0.1058
     17 N         140.1282  142.3271  155.9686 N.pl3   1  UNL1       -0.3313
     18 C         140.5720  143.1150  157.1654 C.ar    1  UNL1        0.0505
     19 C         141.2534  143.1767  158.5002 C.ar    1  UNL1        0.0319
     20 C         141.9897  142.4956  159.6156 C.ar    1  UNL1        0.0646
     21 C         141.7369  143.9946  159.7863 C.ar    1  UNL1        0.0177
     22 C         141.0483  144.9897  158.8999 C.ar    1  UNL1        0.0072
     23 C         140.4659  144.5499  157.5894 C.ar    1  UNL1        0.0663
     24 C         143.1512  143.1340  162.1246 C.3     1  UNL1        0.0446
     25 C         143.7983  143.3489  163.4607 C.3     1  UNL1        0.0128
     26 C         144.2824  144.0483  164.6961 C.3     1  UNL1        0.0008
     27 C         143.3294  144.7439  163.1710 C.3     1  UNL1        0.0008
     28 C         144.4353  142.1967  164.1795 C.3     1  UNL1        0.0695
     29 C         144.4254  140.8296  163.5622 C.2     1  UNL1        0.1739
     30 O         145.0624  139.6775  164.2809 O.2     1  UNL1       -0.2913
     31 H         139.6763  142.9802  155.3869 H       1  UNL1        0.1469
     32 C         139.7773  145.5450  156.7031 C.2     1  UNL1        0.2439
     33 N         140.0191  147.0130  156.8942 N.am    1  UNL1       -0.3253
     34 O         138.8470  145.0721  155.6256 O.2     1  UNL1       -0.2703
     35 H         140.6297  147.3233  157.6014 H       1  UNL1        0.1453
     36 H         139.5672  147.6661  156.3125 H       1  UNL1        0.1453
@<TRIPOS>BOND
     1     1     2    1
     2     2     3   ar
     3     3     4   ar
     4     4     5   ar
     5     5     6   ar
     6     6     7    1
     7     7     8    1
     8     8     9    1
     9     9    10    1
    10    10    11    1
    11    11    12    1
    12    12    13    1
    13    13    14    1
    14    15    14    1
    15    15    16    1
    16    16    17    1
    17    17    18    1
    18    18    19   ar
    19    19    20   ar
    20    20    21   ar
    21    21    22   ar
    22    22    23   ar
    23    23    32    1
    24    32    33   am
    25    32    34    2
    26     4    24    1
    27    24    25    1
    28    25    26    1
    29    25    27    1
    30    25    28    1
    31    28    29    1
    32    29    30    2
    33     6     2   ar
    34    15    10    1
    35    23    18   ar
    36    29     3    1
    37    20     5    1
    38    17    31    1
    39    33    35    1
    40    33    36    1
@<TRIPOS>MOLECULE
*****
 36 40 0 0 0
SMALL
GASTEIGER

@<TRIPOS>ATOM
      1 C         143.5516  139.6522  163.5122 C.3     1  UNL1        0.0323
      2 C         142.4063  140.2886  162.7819 C.ar    1  UNL1       -0.0060
      3 C         141.5994  141.4602  163.2574 C.ar    1  UNL1        0.0438
      4 C         140.5613  141.7608  162.2173 C.ar    1  UNL1        0.0435
      5 N         140.7265  140.7749  161.0989 N.ar    1  UNL1       -0.3137
      6 C         141.8668  139.8651  161.4479 C.ar    1  UNL1        0.0372
      7 C         142.7559  138.7066  161.1055 C.3     1  UNL1        0.0452
      8 C         143.1557  137.6099  160.1634 C.3     1  UNL1        0.0236
      9 C         142.9590  136.8689  158.8741 C.3     1  UNL1        0.0726
     10 N         142.2185  136.6821  157.5831 N.3     1  UNL1       -0.2682
     11 C         143.1077  135.5236  157.2407 C.3     1  UNL1        0.1046
     12 C         142.9110  134.7827  155.9514 C.3     1  UNL1        0.1595
     13 O         141.8251  135.2002  155.0046 O.3     1  UNL1       -0.3508
     14 C         140.9359  136.3586  155.3470 C.3     1  UNL1        0.1598
     15 C         141.1326  137.0996  156.6362 C.3     1  UNL1        0.1071
     16 C         139.9924  138.0095  156.2873 C.3     1  UNL1        0.1058
     17 N         139.1032  139.1680  156.6297 N.pl3   1  UNL1       -0.3313
     18 C         138.7034  140.2647  157.5718 C.ar    1  UNL1        0.0505
     19 C         138.9001  141.0057  158.8611 C.ar    1  UNL1        0.0319
     20 C         139.6406  141.1925  160.1521 C.ar    1  UNL1        0.0646
     21 C         138.4931  142.1672  159.8818 C.ar    1  UNL1        0.0177
     22 C         137.5477  142.2866  158.7234 C.ar    1  UNL1        0.0072
     23 C         137.6528  141.3354  157.5684 C.ar    1  UNL1        0.0663
     24 C         139.5995  142.8935  162.4229 C.3     1  UNL1        0.0446
     25 C         139.6760  143.7256  163.6686 C.3     1  UNL1        0.0128
     26 C         139.3529  144.7904  164.6744 C.3     1  UNL1        0.0008
     27 C         138.5256  144.3960  162.9778 C.3     1  UNL1        0.0008
     28 C         140.7141  143.4250  164.7088 C.3     1  UNL1        0.0695
     29 C         141.6759  142.2923  164.5031 C.2     1  UNL1        0.1739
     30 O         142.7140  141.9917  165.5432 O.2     1  UNL1       -0.2913
     31 H         138.4827  139.2464  155.8694 H       1  UNL1        0.1469
     32 C         136.7074  141.4548  156.4100 C.2     1  UNL1        0.2439
     33 N         136.2457  142.8076  155.9552 N.am    1  UNL1       -0.3253
     34 O         136.2237  140.2215  155.7064 O.2     1  UNL1       -0.2703
     35 H         136.5632  143.6170  156.4170 H       1  UNL1        0.1453
     36 H         135.6252  142.8860  155.1949 H       1  UNL1        0.1453
@<TRIPOS>BOND
     1     1     2    1
     2     2     3   ar
     3     3     4   ar
     4     4     5   ar
     5     5     6   ar
     6     6     7    1
     7     7     8    1
     8     8     9    1
     9     9    10    1
    10    10    11    1
    11    11    12    1
    12    12    13    1
    13    13    14    1
    14    15    14    1
    15    15    16    1
    16    16    17    1
    17    17    18    1
    18    18    19   ar
    19    19    20   ar
    20    20    21   ar
    21    21    22   ar
    22    22    23   ar
    23    23    32    1
    24    32    33   am
    25    32    34    2
    26     4    24    1
    27    24    25    1
    28    25    26    1
    29    25    27    1
    30    25    28    1
    31    28    29    1
    32    29    30    2
    33     6     2   ar
    34    15    10    1
    35    23    18   ar
    36    29     3    1
    37    20     5    1
    38    17    31    1
    39    33    35    1
    40    33    36    1
@<TRIPOS>MOLECULE
*****
 36 40 0 0 0
SMALL
GASTEIGER

@<TRIPOS>ATOM
      1 C         142.9334  136.9191  158.1953 C.3     1  UNL1        0.0323
      2 C         142.7364  138.4053  158.2438 C.ar    1  UNL1       -0.0060
      3 C         143.2096  139.3914  157.2173 C.ar    1  UNL1        0.0438
      4 C         142.7972  140.7619  157.6664 C.ar    1  UNL1        0.0435
      5 N         142.0692  140.6228  158.9705 N.ar    1  UNL1       -0.3137
      6 C         142.0316  139.1664  159.3273 C.ar    1  UNL1        0.0372
      7 C         141.6224  138.0686  160.2640 C.3     1  UNL1        0.0452
      8 C         140.9513  137.6235  161.5295 C.3     1  UNL1        0.0236
      9 C         140.1980  137.9505  162.7848 C.3     1  UNL1        0.0726
     10 N         139.5644  138.9618  163.6934 N.3     1  UNL1       -0.2682
     11 C         139.1553  137.8640  164.6300 C.3     1  UNL1        0.1046
     12 C         138.4020  138.1910  165.8853 C.3     1  UNL1        0.1595
     13 O         138.0579  139.6158  166.2039 O.3     1  UNL1       -0.3508
     14 C         138.4671  140.7136  165.2672 C.3     1  UNL1        0.1598
     15 C         139.2203  140.3866  164.0120 C.3     1  UNL1        0.1071
     16 C         139.2579  141.8431  163.6552 C.3     1  UNL1        0.1058
     17 N         139.6671  142.9409  162.7185 N.pl3   1  UNL1       -0.3313
     18 C         140.3383  143.3860  161.4530 C.ar    1  UNL1        0.0505
     19 C         141.0915  143.0590  160.1977 C.ar    1  UNL1        0.0319
     20 C         141.7251  142.0476  159.2891 C.ar    1  UNL1        0.0646
     21 C         141.8129  143.5083  158.8433 C.ar    1  UNL1        0.0177
     22 C         141.3068  144.7694  159.4786 C.ar    1  UNL1        0.0072
     23 C         140.5695  144.7082  160.7835 C.ar    1  UNL1        0.0663
     24 C         143.1379  141.9595  156.8298 C.3     1  UNL1        0.0446
     25 C         143.8910  141.7865  155.5441 C.3     1  UNL1        0.0128
     26 C         144.5845  142.1311  154.2596 C.3     1  UNL1        0.0008
     27 C         143.7195  143.2767  155.5471 C.3     1  UNL1        0.0008
     28 C         144.3034  140.4160  155.0950 C.3     1  UNL1        0.0695
     29 C         143.9626  139.2185  155.9316 C.2     1  UNL1        0.1739
     30 O         144.3750  137.8481  155.4825 O.2     1  UNL1       -0.2913
     31 H         139.3350  143.7686  163.1354 H       1  UNL1        0.1469
     32 C         140.0634  145.9693  161.4187 C.2     1  UNL1        0.2439
     33 N         140.5804  146.3923  162.7618 N.am    1  UNL1       -0.3253
     34 O         139.0403  146.8073  160.7109 O.2     1  UNL1       -0.2703
     35 H         141.2519  145.8422  163.2263 H       1  UNL1        0.1453
     36 H         140.2483  147.2200  163.1787 H       1  UNL1        0.1453
@<TRIPOS>BOND
     1     1     2    1
     2     2     3   ar
     3     3     4   ar
     4     4     5   ar
     5     5     6   ar
     6     6     7    1
     7     7     8    1
     8     8     9    1
     9     9    10    1
    10    10    11    1
    11    11    12    1
    12    12    13    1
    13    13    14    1
    14    15    14    1
    15    15    16    1
    16    16    17    1
    17    17    18    1
    18    18    19   ar
    19    19    20   ar
    20    20    21   ar
    21    21    22   ar
    22    22    23   ar
    23    23    32    1
    24    32    33   am
    25    32    34    2
    26     4    24    1
    27    24    25    1
    28    25    26    1
    29    25    27    1
    30    25    28    1
    31    28    29    1
    32    29    30    2
    33     6     2   ar
    34    15    10    1
    35    23    18   ar
    36    29     3    1
    37    20     5    1
    38    17    31    1
    39    33    35    1
    40    33    36    1
@<TRIPOS>MOLECULE
*****
 36 40 0 0 0
SMALL
GASTEIGER

@<TRIPOS>ATOM
      1 C         144.0441  143.5930  162.8457 C.3     1  UNL1        0.0323
      2 C         143.0765  142.6064  162.2623 C.ar    1  UNL1       -0.0060
      3 C         141.8555  142.0613  162.9422 C.ar    1  UNL1        0.0438
      4 C         141.1844  141.1097  161.9966 C.ar    1  UNL1        0.0435
      5 N         141.9906  141.0666  160.7324 N.ar    1  UNL1       -0.3137
      6 C         143.1599  141.9916  160.8966 C.ar    1  UNL1        0.0372
      7 C         144.4064  142.6198  160.3475 C.3     1  UNL1        0.0452
      8 C         145.3961  142.7828  159.2322 C.3     1  UNL1        0.0236
      9 C         145.8639  142.4369  157.8495 C.3     1  UNL1        0.0726
     10 N         145.6843  141.6749  156.5701 N.3     1  UNL1       -0.2682
     11 C         146.9308  142.3031  156.0210 C.3     1  UNL1        0.1046
     12 C         147.3985  141.9573  154.6384 C.3     1  UNL1        0.1595
     13 O         146.6197  140.9833  153.8049 O.3     1  UNL1       -0.3508
     14 C         145.3732  140.3551  154.3540 C.3     1  UNL1        0.1598
     15 C         144.9055  140.7009  155.7366 C.3     1  UNL1        0.1071
     16 C         143.7362  139.7759  155.5724 C.3     1  UNL1        0.1058
     17 N         142.4896  139.1477  156.1216 N.pl3   1  UNL1       -0.3313
     18 C         141.4999  138.9847  157.2369 C.ar    1  UNL1        0.0505
     19 C         141.0322  139.3305  158.6195 C.ar    1  UNL1        0.0319
     20 C         141.2118  140.0925  159.8989 C.ar    1  UNL1        0.0646
     21 C         139.9910  139.1739  159.8229 C.ar    1  UNL1        0.0177
     22 C         139.4949  138.2753  158.7291 C.ar    1  UNL1        0.0072
     23 C         140.2493  138.1807  157.4361 C.ar    1  UNL1        0.0663
     24 C         139.9259  140.4052  162.4090 C.3     1  UNL1        0.0446
     25 C         139.3385  140.6525  163.7669 C.3     1  UNL1        0.0128
     26 C         138.4056  140.5578  164.9376 C.3     1  UNL1        0.0008
     27 C         138.3434  139.6680  163.2280 C.3     1  UNL1        0.0008
     28 C         140.0096  141.6041  164.7124 C.3     1  UNL1        0.0695
     29 C         141.2682  142.3086  164.3000 C.2     1  UNL1        0.1739
     30 O         141.9392  143.2602  165.2455 O.2     1  UNL1       -0.2913
     31 H         142.1640  138.5579  155.4037 H       1  UNL1        0.1469
     32 C         139.7532  137.2820  156.3423 C.2     1  UNL1        0.2439
     33 N         140.5915  136.1259  155.8834 N.am    1  UNL1       -0.3253
     34 O         138.4188  137.5396  155.7075 O.2     1  UNL1       -0.2703
     35 H         141.4673  135.9569  156.3001 H       1  UNL1        0.1453
     36 H         140.2659  135.5361  155.1656 H       1  UNL1        0.1453
@<TRIPOS>BOND
     1     1     2    1
     2     2     3   ar
     3     3     4   ar
     4     4     5   ar
     5     5     6   ar
     6     6     7    1
     7     7     8    1
     8     8     9    1
     9     9    10    1
    10    10    11    1
    11    11    12    1
    12    12    13    1
    13    13    14    1
    14    15    14    1
    15    15    16    1
    16    16    17    1
    17    17    18    1
    18    18    19   ar
    19    19    20   ar
    20    20    21   ar
    21    21    22   ar
    22    22    23   ar
    23    23    32    1
    24    32    33   am
    25    32    34    2
    26     4    24    1
    27    24    25    1
    28    25    26    1
    29    25    27    1
    30    25    28    1
    31    28    29    1
    32    29    30    2
    33     6     2   ar
    34    15    10    1
    35    23    18   ar
    36    29     3    1
    37    20     5    1
    38    17    31    1
    39    33    35    1
    40    33    36    1
