@<TRIPOS>MOLECULE
*****
 14 15 0 0 0
SMALL
GASTEIGER

@<TRIPOS>ATOM
      1 C         138.4927  138.9561  166.0979 C.ar    1  UNL1        0.1385
      2 C         138.9173  137.6735  165.4462 C.ar    1  UNL1        0.0374
      3 C         138.9681  137.5733  163.9504 C.ar    1  UNL1        0.0090
      4 C         138.5943  138.7556  163.1063 C.ar    1  UNL1        0.0228
      5 C         138.1697  140.0381  163.7581 C.ar    1  UNL1        0.0023
      6 C         138.1189  140.1384  165.2538 C.ar    1  UNL1        0.0345
      7 C         137.7592  141.3263  163.1083 C.3     1  UNL1        0.0962
      8 N         137.6718  141.6499  161.6462 N.3     1  UNL1       -0.2930
      9 C         137.9734  140.7655  160.4729 C.3     1  UNL1        0.0810
     10 C         138.4369  139.3389  160.4718 C.3     1  UNL1        0.0792
     11 S         138.7132  138.4444  161.6438 S.3     1  UNL1       -0.1125
     12 H         138.2879  142.4538  161.5252 H       1  UNL1        0.1236
     13 C         139.3974  139.9578  168.3178 C.3     1  UNL1        0.2525
     14 O         138.4420  139.0562  167.5937 O.3     1  UNL1       -0.4714
@<TRIPOS>BOND
     1    13    14    1
     2    14     1    1
     3     1     2   ar
     4     2     3   ar
     5     3     4   ar
     6     4     5   ar
     7     5     6   ar
     8     5     7    1
     9     7     8    1
    10     8     9    1
    11     9    10    1
    12    10    11    1
    13     6     1   ar
    14    11     4    1
    15     8    12    1
@<TRIPOS>MOLECULE
*****
 14 15 0 0 0
SMALL
GASTEIGER

@<TRIPOS>ATOM
      1 C         139.4912  139.1237  165.9116 C.ar    1  UNL1        0.1385
      2 C         140.9634  139.0761  165.6281 C.ar    1  UNL1        0.0374
      3 C         141.9442  139.4969  166.6822 C.ar    1  UNL1        0.0090
      4 C         141.4526  139.9652  168.0198 C.ar    1  UNL1        0.0228
      5 C         139.9805  140.0127  168.3033 C.ar    1  UNL1        0.0023
      6 C         138.9998  139.5919  167.2492 C.ar    1  UNL1        0.0345
      7 C         139.2834  140.4436  169.5597 C.3     1  UNL1        0.0962
      8 N         139.8865  140.9334  170.8429 N.3     1  UNL1       -0.2930
      9 C         141.3354  141.1133  171.1865 C.3     1  UNL1        0.0810
     10 C         142.5393  140.8478  170.3320 C.3     1  UNL1        0.0792
     11 S         142.5915  140.3368  168.9226 S.3     1  UNL1       -0.1125
     12 H         139.5333  140.2916  171.5526 H       1  UNL1        0.1236
     13 C         138.9625  137.8471  163.7114 C.3     1  UNL1        0.2525
     14 O         138.5105  138.7029  164.8575 O.3     1  UNL1       -0.4714
@<TRIPOS>BOND
     1    13    14    1
     2    14     1    1
     3     1     2   ar
     4     2     3   ar
     5     3     4   ar
     6     4     5   ar
     7     5     6   ar
     8     5     7    1
     9     7     8    1
    10     8     9    1
    11     9    10    1
    12    10    11    1
    13     6     1   ar
    14    11     4    1
    15     8    12    1
@<TRIPOS>MOLECULE
*****
 14 15 0 0 0
SMALL
GASTEIGER

@<TRIPOS>ATOM
      1 C         138.5604  139.8843  165.7884 C.ar    1  UNL1        0.1385
      2 C         139.5998  140.6066  166.5933 C.ar    1  UNL1        0.0374
      3 C         140.0151  141.9957  166.2083 C.ar    1  UNL1        0.0090
      4 C         139.3910  142.6623  165.0182 C.ar    1  UNL1        0.0228
      5 C         138.3517  141.9400  164.2134 C.ar    1  UNL1        0.0023
      6 C         137.9363  140.5510  164.5984 C.ar    1  UNL1        0.0345
      7 C         137.6093  142.4175  163.0005 C.3     1  UNL1        0.0962
      8 N         137.7231  143.7353  162.2930 N.3     1  UNL1       -0.2930
      9 C         138.6072  144.9010  162.6237 C.3     1  UNL1        0.0810
     10 C         139.5960  145.0369  163.7435 C.3     1  UNL1        0.0792
     11 S         139.9448  144.0405  164.8092 S.3     1  UNL1       -0.1125
     12 H         136.7778  144.1181  162.3122 H       1  UNL1        0.1236
     13 C         138.6698  137.3165  165.4085 C.3     1  UNL1        0.2525
     14 O         138.1452  138.4954  166.1735 O.3     1  UNL1       -0.4714
@<TRIPOS>BOND
     1    13    14    1
     2    14     1    1
     3     1     2   ar
     4     2     3   ar
     5     3     4   ar
     6     4     5   ar
     7     5     6   ar
     8     5     7    1
     9     7     8    1
    10     8     9    1
    11     9    10    1
    12    10    11    1
    13     6     1   ar
    14    11     4    1
    15     8    12    1
@<TRIPOS>MOLECULE
*****
 14 15 0 0 0
SMALL
GASTEIGER

@<TRIPOS>ATOM
      1 C         138.5157  144.2328  162.9658 C.ar    1  UNL1        0.1385
      2 C         137.7588  143.0345  162.4745 C.ar    1  UNL1        0.0374
      3 C         137.7729  141.7614  163.2677 C.ar    1  UNL1        0.0090
      4 C         138.5440  141.6867  164.5522 C.ar    1  UNL1        0.0228
      5 C         139.3009  142.8848  165.0434 C.ar    1  UNL1        0.0023
      6 C         139.2867  144.1579  164.2503 C.ar    1  UNL1        0.0345
      7 C         140.1273  143.0236  166.2876 C.3     1  UNL1        0.0962
      8 N         140.4008  141.9982  167.3477 N.3     1  UNL1       -0.2930
      9 C         139.9156  140.5811  167.4255 C.3     1  UNL1        0.0810
     10 C         139.0370  139.8391  166.4624 C.3     1  UNL1        0.0792
     11 S         138.4265  140.3311  165.1837 S.3     1  UNL1       -0.1125
     12 H         140.0706  142.4291  168.2112 H       1  UNL1        0.1236
     13 C         139.7924  146.1796  161.8126 C.3     1  UNL1        0.2525
     14 O         138.5015  145.5058  162.1726 O.3     1  UNL1       -0.4714
@<TRIPOS>BOND
     1    13    14    1
     2    14     1    1
     3     1     2   ar
     4     2     3   ar
     5     3     4   ar
     6     4     5   ar
     7     5     6   ar
     8     5     7    1
     9     7     8    1
    10     8     9    1
    11     9    10    1
    12    10    11    1
    13     6     1   ar
    14    11     4    1
    15     8    12    1
@<TRIPOS>MOLECULE
*****
 14 15 0 0 0
SMALL
GASTEIGER

@<TRIPOS>ATOM
      1 C         143.2772  139.6697  165.6630 C.ar    1  UNL1        0.1385
      2 C         143.3138  141.1609  165.5050 C.ar    1  UNL1        0.0374
      3 C         143.0090  142.0469  166.6764 C.ar    1  UNL1        0.0090
      4 C         142.6676  141.4417  168.0058 C.ar    1  UNL1        0.0228
      5 C         142.6310  139.9506  168.1637 C.ar    1  UNL1        0.0023
      6 C         142.9358  139.0645  166.9924 C.ar    1  UNL1        0.0345
      7 C         142.3165  139.1475  169.3911 C.3     1  UNL1        0.0962
      8 N         141.9608  139.6375  170.7635 N.3     1  UNL1       -0.2930
      9 C         141.8319  141.0513  171.2475 C.3     1  UNL1        0.0810
     10 C         142.0268  142.3245  170.4788 C.3     1  UNL1        0.0792
     11 S         142.3987  142.4982  169.0360 S.3     1  UNL1       -0.1125
     12 H         142.6646  139.2217  171.3736 H       1  UNL1        0.1236
     13 C         144.2116  139.3610  163.2586 C.3     1  UNL1        0.2525
     14 O         143.5821  138.7837  164.4917 O.3     1  UNL1       -0.4714
@<TRIPOS>BOND
     1    13    14    1
     2    14     1    1
     3     1     2   ar
     4     2     3   ar
     5     3     4   ar
     6     4     5   ar
     7     5     6   ar
     8     5     7    1
     9     7     8    1
    10     8     9    1
    11     9    10    1
    12    10    11    1
    13     6     1   ar
    14    11     4    1
    15     8    12    1
@<TRIPOS>MOLECULE
*****
 14 15 0 0 0
SMALL
GASTEIGER

@<TRIPOS>ATOM
      1 C         140.0446  140.8500  167.1935 C.ar    1  UNL1        0.1385
      2 C         139.1111  139.9425  166.4485 C.ar    1  UNL1        0.0374
      3 C         138.3987  140.4396  165.2255 C.ar    1  UNL1        0.0090
      4 C         138.6199  141.8442  164.7477 C.ar    1  UNL1        0.0228
      5 C         139.5533  142.7516  165.4928 C.ar    1  UNL1        0.0023
      6 C         140.2657  142.2546  166.7157 C.ar    1  UNL1        0.0345
      7 C         139.9136  144.1758  165.1897 C.3     1  UNL1        0.0962
      8 N         139.4294  145.0443  164.0665 N.3     1  UNL1       -0.2930
      9 C         138.4653  144.7030  162.9693 C.3     1  UNL1        0.0810
     10 C         137.7473  143.4091  162.7240 C.3     1  UNL1        0.0792
     11 S         137.8161  142.1367  163.5155 S.3     1  UNL1       -0.1125
     12 H         140.2791  145.3305  163.5802 H       1  UNL1        0.1236
     13 C         140.5341  141.0244  169.7391 C.3     1  UNL1        0.2525
     14 O         140.7569  140.3529  168.4164 O.3     1  UNL1       -0.4714
@<TRIPOS>BOND
     1    13    14    1
     2    14     1    1
     3     1     2   ar
     4     2     3   ar
     5     3     4   ar
     6     4     5   ar
     7     5     6   ar
     8     5     7    1
     9     7     8    1
    10     8     9    1
    11     9    10    1
    12    10    11    1
    13     6     1   ar
    14    11     4    1
    15     8    12    1
@<TRIPOS>MOLECULE
*****
 14 15 0 0 0
SMALL
GASTEIGER

@<TRIPOS>ATOM
      1 C         142.0744  139.7320  167.7899 C.ar    1  UNL1        0.1385
      2 C         140.6400  140.1343  167.9656 C.ar    1  UNL1        0.0374
      3 C         139.6337  139.8074  166.9023 C.ar    1  UNL1        0.0090
      4 C         140.0619  139.0782  165.6633 C.ar    1  UNL1        0.0228
      5 C         141.4962  138.6760  165.4877 C.ar    1  UNL1        0.0023
      6 C         142.5024  139.0028  166.5509 C.ar    1  UNL1        0.0345
      7 C         142.1296  137.9484  164.3389 C.3     1  UNL1        0.0962
      8 N         141.4850  137.4435  163.0821 N.3     1  UNL1       -0.2930
      9 C         140.0479  137.5414  162.6637 C.3     1  UNL1        0.0810
     10 C         138.9004  138.1683  163.3986 C.3     1  UNL1        0.0792
     11 S         138.9066  138.8523  164.7336 S.3     1  UNL1       -0.1125
     12 H         141.6852  136.4434  163.0762 H       1  UNL1        0.1236
     13 C         142.7585  141.0829  169.9011 C.3     1  UNL1        0.2525
     14 O         143.0805  140.0590  168.8533 O.3     1  UNL1       -0.4714
@<TRIPOS>BOND
     1    13    14    1
     2    14     1    1
     3     1     2   ar
     4     2     3   ar
     5     3     4   ar
     6     4     5   ar
     7     5     6   ar
     8     5     7    1
     9     7     8    1
    10     8     9    1
    11     9    10    1
    12    10    11    1
    13     6     1   ar
    14    11     4    1
    15     8    12    1
@<TRIPOS>MOLECULE
*****
 14 15 0 0 0
SMALL
GASTEIGER

@<TRIPOS>ATOM
      1 C         140.4502  140.6383  167.8103 C.ar    1  UNL1        0.1385
      2 C         140.8770  142.0721  167.6999 C.ar    1  UNL1        0.0374
      3 C         140.3754  142.9189  166.5679 C.ar    1  UNL1        0.0090
      4 C         139.4469  142.3319  165.5464 C.ar    1  UNL1        0.0228
      5 C         139.0201  140.8983  165.6568 C.ar    1  UNL1        0.0023
      6 C         139.5217  140.0514  166.7887 C.ar    1  UNL1        0.0345
      7 C         138.1084  140.1216  164.7536 C.3     1  UNL1        0.0962
      8 N         137.3984  140.5870  163.5169 N.3     1  UNL1       -0.2930
      9 C         137.4248  141.9437  162.8780 C.3     1  UNL1        0.0810
     10 C         138.1676  143.1704  163.3179 C.3     1  UNL1        0.0792
     11 S         139.0675  143.3432  164.5055 S.3     1  UNL1       -0.1125
     12 H         136.4116  140.4138  163.7083 H       1  UNL1        0.1236
     13 C         140.4727  140.0482  170.3403 C.3     1  UNL1        0.2525
     14 O         140.9518  139.7916  168.9422 O.3     1  UNL1       -0.4714
@<TRIPOS>BOND
     1    13    14    1
     2    14     1    1
     3     1     2   ar
     4     2     3   ar
     5     3     4   ar
     6     4     5   ar
     7     5     6   ar
     8     5     7    1
     9     7     8    1
    10     8     9    1
    11     9    10    1
    12    10    11    1
    13     6     1   ar
    14    11     4    1
    15     8    12    1
@<TRIPOS>MOLECULE
*****
 14 15 0 0 0
SMALL
GASTEIGER

@<TRIPOS>ATOM
      1 C         139.4233  137.7768  164.2814 C.ar    1  UNL1        0.1385
      2 C         138.7238  137.7261  162.9554 C.ar    1  UNL1        0.0374
      3 C         139.4978  137.9494  161.6901 C.ar    1  UNL1        0.0090
      4 C         140.9714  138.2233  161.7507 C.ar    1  UNL1        0.0228
      5 C         141.6708  138.2739  163.0766 C.ar    1  UNL1        0.0023
      6 C         140.8969  138.0507  164.3419 C.ar    1  UNL1        0.0345
      7 C         143.1215  138.5299  163.3595 C.3     1  UNL1        0.0962
      8 N         144.2310  138.7985  162.3863 N.3     1  UNL1       -0.2930
      9 C         144.1637  138.8774  160.8900 C.3     1  UNL1        0.0810
     10 C         142.9705  138.7072  159.9971 C.3     1  UNL1        0.0792
     11 S         141.5497  138.4161  160.3802 S.3     1  UNL1       -0.1125
     12 H         144.9173  138.0674  162.5730 H       1  UNL1        0.1236
     13 C         138.1192  138.7256  166.3183 C.3     1  UNL1        0.2525
     14 O         138.6493  137.5536  165.5467 O.3     1  UNL1       -0.4714
@<TRIPOS>BOND
     1    13    14    1
     2    14     1    1
     3     1     2   ar
     4     2     3   ar
     5     3     4   ar
     6     4     5   ar
     7     5     6   ar
     8     5     7    1
     9     7     8    1
    10     8     9    1
    11     9    10    1
    12    10    11    1
    13     6     1   ar
    14    11     4    1
    15     8    12    1
