@<TRIPOS>MOLECULE
*****
 31 35 0 0 0
SMALL
GASTEIGER

@<TRIPOS>ATOM
      1 C         140.1564  145.6934  161.8855 C.3     1  UNL1        0.0730
      2 C         142.6484  138.6824  170.2463 C.3     1  UNL1        0.0950
      3 C         142.3144  139.6220  169.1258 C.ar    1  UNL1        0.2062
      4 N         141.1021  140.5017  169.0445 N.ar    1  UNL1       -0.2121
      5 C         141.1726  141.2703  167.7583 C.ar    1  UNL1        0.1182
      6 C         140.2554  142.2864  167.1447 C.ar    1  UNL1        0.0178
      7 C         140.5941  142.8978  165.8175 C.ar    1  UNL1       -0.0230
      8 C         141.8498  142.4931  165.1039 C.ar    1  UNL1       -0.0216
      9 C         142.7670  141.4771  165.7174 C.ar    1  UNL1        0.0346
     10 C         142.4284  140.8656  167.0447 C.ar    1  UNL1        0.1640
     11 O         143.1340  139.8470  167.8899 O.2     1  UNL1       -0.4384
     12 C         142.3717  142.9755  163.7829 C.3     1  UNL1        0.0434
     13 C         141.7666  143.9816  162.8492 C.3     1  UNL1        0.0768
     14 N         140.4904  144.7538  163.0060 N.3     1  UNL1       -0.2720
     15 C         139.5038  144.7107  164.1352 C.3     1  UNL1        0.0768
     16 C         139.5500  143.8847  165.3864 C.3     1  UNL1        0.0434
     17 C         140.7569  145.4842  160.5269 C.3     1  UNL1        0.0294
     18 C         140.0015  144.7159  159.4833 C.3     1  UNL1        0.0666
     19 S         139.9034  143.2220  159.5761 S.3     1  UNL1       -0.0756
     20 C         139.1371  142.5892  160.6996 C.ar    1  UNL1        0.1930
     21 N         137.7914  143.0210  161.2021 N.ar    1  UNL1       -0.1224
     22 N         137.4045  142.1121  162.3310 N.ar    1  UNL1       -0.1328
     23 C         138.5113  141.1185  162.5262 C.ar    1  UNL1        0.1434
     24 N         139.5821  141.4134  161.5179 N.ar    1  UNL1       -0.2918
     25 C         140.8714  140.6640  161.3564 C.3     1  UNL1        0.1337
     26 C         138.5418  140.0226  163.5498 C.3     1  UNL1        0.0638
     27 C         138.1473  140.3099  164.9682 C.3     1  UNL1        0.0397
     28 C         138.1779  139.2139  165.9919 C.3     1  UNL1        0.1426
     29 O         138.6030  137.8306  165.5972 O.3     1  UNL1       -0.3538
     30 C         138.9975  137.5433  164.1788 C.3     1  UNL1        0.1426
     31 C         138.9669  138.6393  163.1552 C.3     1  UNL1        0.0397
@<TRIPOS>BOND
     1     2     3    1
     2     3     4   ar
     3     4     5   ar
     4     5     6   ar
     5     6     7   ar
     6     7     8   ar
     7     8     9   ar
     8     9    10   ar
     9    10    11   ar
    10     8    12    1
    11    12    13    1
    12    13    14    1
    13    14     1    1
    14     1    17    1
    15    17    18    1
    16    18    19    1
    17    19    20    1
    18    20    21   ar
    19    21    22   ar
    20    22    23   ar
    21    23    26    1
    22    26    27    1
    23    27    28    1
    24    28    29    1
    25    29    30    1
    26    30    31    1
    27    23    24   ar
    28    24    25    1
    29    14    15    1
    30    15    16    1
    31    11     3   ar
    32    24    20   ar
    33    10     5   ar
    34    31    26    1
    35    16     7    1
@<TRIPOS>MOLECULE
*****
 31 35 0 0 0
SMALL
GASTEIGER

@<TRIPOS>ATOM
      1 C         140.1530  145.6580  161.9840 C.3     1  UNL1        0.0730
      2 C         142.6266  138.5650  170.2809 C.3     1  UNL1        0.0950
      3 C         142.2951  139.5157  169.1689 C.ar    1  UNL1        0.2062
      4 N         143.0958  139.7223  167.9174 N.ar    1  UNL1       -0.2121
      5 C         142.4003  140.7609  167.0883 C.ar    1  UNL1        0.1182
      6 C         142.7285  141.3665  165.7558 C.ar    1  UNL1        0.0178
      7 C         141.8260  142.4074  165.1623 C.ar    1  UNL1       -0.0230
      8 C         140.5955  142.8426  165.9013 C.ar    1  UNL1       -0.0216
      9 C         140.2672  142.2370  167.2338 C.ar    1  UNL1        0.0346
     10 C         141.1696  141.1961  167.8273 C.ar    1  UNL1        0.1640
     11 O         141.1047  140.4265  169.1132 O.2     1  UNL1       -0.4384
     12 C         139.5689  143.8572  165.4927 C.3     1  UNL1        0.0434
     13 C         139.5196  144.6872  164.2441 C.3     1  UNL1        0.0768
     14 N         140.4845  144.7074  163.0959 N.3     1  UNL1       -0.2720
     15 C         141.7371  143.9028  162.9125 C.3     1  UNL1        0.0768
     16 C         142.3341  142.8792  163.8322 C.3     1  UNL1        0.0434
     17 C         140.7663  145.4694  160.6281 C.3     1  UNL1        0.0294
     18 C         139.9960  144.7711  159.5469 C.3     1  UNL1        0.0666
     19 S         139.8342  143.2804  159.5846 S.3     1  UNL1       -0.0756
     20 C         139.0909  142.6350  160.7164 C.ar    1  UNL1        0.1930
     21 N         137.7688  143.0782  161.2693 N.ar    1  UNL1       -0.1224
     22 N         137.3999  142.1502  162.3886 N.ar    1  UNL1       -0.1328
     23 C         138.4940  141.1335  162.5274 C.ar    1  UNL1        0.1434
     24 N         139.5391  141.4331  161.4939 N.ar    1  UNL1       -0.2918
     25 C         140.8094  140.6656  161.2762 C.3     1  UNL1        0.1337
     26 C         138.5358  140.0138  163.5246 C.3     1  UNL1        0.0638
     27 C         138.1852  140.2741  164.9597 C.3     1  UNL1        0.0397
     28 C         138.2270  139.1544  165.9569 C.3     1  UNL1        0.1426
     29 O         138.6193  137.7744  165.5192 O.3     1  UNL1       -0.3538
     30 C         138.9698  137.5141  164.0841 C.3     1  UNL1        0.1426
     31 C         138.9281  138.6338  163.0869 C.3     1  UNL1        0.0397
@<TRIPOS>BOND
     1     2     3    1
     2     3     4   ar
     3     4     5   ar
     4     5     6   ar
     5     6     7   ar
     6     7     8   ar
     7     8     9   ar
     8     9    10   ar
     9    10    11   ar
    10     8    12    1
    11    12    13    1
    12    13    14    1
    13    14     1    1
    14     1    17    1
    15    17    18    1
    16    18    19    1
    17    19    20    1
    18    20    21   ar
    19    21    22   ar
    20    22    23   ar
    21    23    26    1
    22    26    27    1
    23    27    28    1
    24    28    29    1
    25    29    30    1
    26    30    31    1
    27    23    24   ar
    28    24    25    1
    29    14    15    1
    30    15    16    1
    31    11     3   ar
    32    24    20   ar
    33    10     5   ar
    34    31    26    1
    35    16     7    1
@<TRIPOS>MOLECULE
*****
 31 35 0 0 0
SMALL
GASTEIGER

@<TRIPOS>ATOM
      1 C         140.9386  145.3811  160.4346 C.3     1  UNL1        0.0730
      2 C         140.9862  139.6466  170.0462 C.3     1  UNL1        0.0950
      3 C         140.9798  140.4152  168.7580 C.ar    1  UNL1        0.2062
      4 N         141.7236  140.0476  167.5083 N.ar    1  UNL1       -0.2121
      5 C         141.4320  141.0915  166.4714 C.ar    1  UNL1        0.1182
      6 C         141.8885  141.2507  165.0514 C.ar    1  UNL1        0.0178
      7 C         141.4209  142.4227  164.2402 C.ar    1  UNL1       -0.0230
      8 C         140.4970  143.4353  164.8490 C.ar    1  UNL1       -0.0216
      9 C         140.0405  143.2761  166.2689 C.ar    1  UNL1        0.0346
     10 C         140.5080  142.1042  167.0801 C.ar    1  UNL1        0.1640
     11 O         140.2285  141.6862  168.4934 O.2     1  UNL1       -0.4384
     12 C         139.9158  144.6676  164.2215 C.3     1  UNL1        0.0434
     13 C         140.1152  145.1915  162.8301 C.3     1  UNL1        0.0768
     14 N         140.9449  144.6125  161.7228 N.3     1  UNL1       -0.2720
     15 C         141.7802  143.3667  161.7331 C.3     1  UNL1        0.0768
     16 C         141.9921  142.3920  162.8535 C.3     1  UNL1        0.0434
     17 C         140.0832  144.9215  159.2912 C.3     1  UNL1        0.0294
     18 C         140.1776  143.5054  158.8058 C.3     1  UNL1        0.0666
     19 S         139.0308  142.5620  159.0172 S.3     1  UNL1       -0.0756
     20 C         138.5960  142.2101  160.4090 C.ar    1  UNL1        0.1930
     21 N         137.6912  143.0269  161.2831 N.ar    1  UNL1       -0.1224
     22 N         137.5256  142.3013  162.5854 N.ar    1  UNL1       -0.1328
     23 C         138.3281  141.0358  162.5161 C.ar    1  UNL1        0.1434
     24 N         138.9897  140.9795  161.1710 N.ar    1  UNL1       -0.2918
     25 C         139.8872  139.8848  160.6751 C.3     1  UNL1        0.1337
     26 C         138.4481  140.0074  163.6014 C.3     1  UNL1        0.0638
     27 C         138.0797  140.3593  165.0122 C.3     1  UNL1        0.0397
     28 C         138.1997  139.3308  166.0975 C.3     1  UNL1        0.1426
     29 O         138.6879  137.9504  165.7720 O.3     1  UNL1       -0.3538
     30 C         139.0562  137.5984  164.3612 C.3     1  UNL1        0.1426
     31 C         138.9363  138.6269  163.2759 C.3     1  UNL1        0.0397
@<TRIPOS>BOND
     1     2     3    1
     2     3     4   ar
     3     4     5   ar
     4     5     6   ar
     5     6     7   ar
     6     7     8   ar
     7     8     9   ar
     8     9    10   ar
     9    10    11   ar
    10     8    12    1
    11    12    13    1
    12    13    14    1
    13    14     1    1
    14     1    17    1
    15    17    18    1
    16    18    19    1
    17    19    20    1
    18    20    21   ar
    19    21    22   ar
    20    22    23   ar
    21    23    26    1
    22    26    27    1
    23    27    28    1
    24    28    29    1
    25    29    30    1
    26    30    31    1
    27    23    24   ar
    28    24    25    1
    29    14    15    1
    30    15    16    1
    31    11     3   ar
    32    24    20   ar
    33    10     5   ar
    34    31    26    1
    35    16     7    1
@<TRIPOS>MOLECULE
*****
 31 35 0 0 0
SMALL
GASTEIGER

@<TRIPOS>ATOM
      1 C         141.0272  145.3288  160.6382 C.3     1  UNL1        0.0730
      2 C         141.5648  140.6236  170.7792 C.3     1  UNL1        0.0950
      3 C         141.4927  141.2542  169.4201 C.ar    1  UNL1        0.2062
      4 N         140.3599  142.0835  168.8917 N.ar    1  UNL1       -0.2121
      5 C         140.7080  142.5080  167.4958 C.ar    1  UNL1        0.1182
      6 C         139.9716  143.3375  166.4860 C.ar    1  UNL1        0.0178
      7 C         140.5832  143.6002  165.1417 C.ar    1  UNL1       -0.0230
      8 C         141.9310  143.0334  164.8074 C.ar    1  UNL1       -0.0216
      9 C         142.6674  142.2038  165.8171 C.ar    1  UNL1        0.0346
     10 C         142.0559  141.9411  167.1614 C.ar    1  UNL1        0.1640
     11 O         142.5409  141.1662  168.3506 O.2     1  UNL1       -0.4384
     12 C         142.7151  143.1729  163.5362 C.3     1  UNL1        0.0434
     13 C         142.3449  143.9139  162.2855 C.3     1  UNL1        0.0768
     14 N         141.0993  144.6982  161.9973 N.3     1  UNL1       -0.2720
     15 C         139.9161  144.9353  162.8883 C.3     1  UNL1        0.0768
     16 C         139.6864  144.4467  164.2877 C.3     1  UNL1        0.0434
     17 C         141.2665  144.4981  159.4122 C.3     1  UNL1        0.0294
     18 C         140.1118  144.0879  158.5470 C.3     1  UNL1        0.0666
     19 S         139.4329  142.7704  158.7775 S.3     1  UNL1       -0.0756
     20 C         138.9708  142.3955  160.1544 C.ar    1  UNL1        0.1930
     21 N         137.7003  142.8472  160.8116 N.ar    1  UNL1       -0.1224
     22 N         137.6424  142.2339  162.1792 N.ar    1  UNL1       -0.1328
     23 C         138.8771  141.4032  162.3673 C.ar    1  UNL1        0.1434
     24 N         139.6981  141.5030  161.1159 N.ar    1  UNL1       -0.2918
     25 C         141.0152  140.8288  160.8694 C.3     1  UNL1        0.1337
     26 C         139.2290  140.6116  163.5919 C.3     1  UNL1        0.0638
     27 C         140.5407  139.8876  163.6656 C.3     1  UNL1        0.0397
     28 C         140.8926  139.0960  164.8902 C.3     1  UNL1        0.1426
     29 O         139.9329  139.0283  166.0410 O.3     1  UNL1       -0.3538
     30 C         138.6213  139.7522  165.9672 C.3     1  UNL1        0.1426
     31 C         138.2693  140.5438  164.7427 C.3     1  UNL1        0.0397
@<TRIPOS>BOND
     1     2     3    1
     2     3     4   ar
     3     4     5   ar
     4     5     6   ar
     5     6     7   ar
     6     7     8   ar
     7     8     9   ar
     8     9    10   ar
     9    10    11   ar
    10     8    12    1
    11    12    13    1
    12    13    14    1
    13    14     1    1
    14     1    17    1
    15    17    18    1
    16    18    19    1
    17    19    20    1
    18    20    21   ar
    19    21    22   ar
    20    22    23   ar
    21    23    26    1
    22    26    27    1
    23    27    28    1
    24    28    29    1
    25    29    30    1
    26    30    31    1
    27    23    24   ar
    28    24    25    1
    29    14    15    1
    30    15    16    1
    31    11     3   ar
    32    24    20   ar
    33    10     5   ar
    34    31    26    1
    35    16     7    1
@<TRIPOS>MOLECULE
*****
 31 35 0 0 0
SMALL
GASTEIGER

@<TRIPOS>ATOM
      1 C         138.1501  142.4264  160.8954 C.3     1  UNL1        0.0730
      2 C         142.9508  139.9978  170.7099 C.3     1  UNL1        0.0950
      3 C         142.3074  140.3232  169.3945 C.ar    1  UNL1        0.2062
      4 N         140.9424  139.8889  168.9492 N.ar    1  UNL1       -0.2121
      5 C         140.7075  140.4374  167.5730 C.ar    1  UNL1        0.1182
      6 C         139.5404  140.3326  166.6365 C.ar    1  UNL1        0.0178
      7 C         139.5931  141.0012  165.2948 C.ar    1  UNL1       -0.0230
      8 C         140.8127  141.7746  164.8896 C.ar    1  UNL1       -0.0216
      9 C         141.9798  141.8794  165.8260 C.ar    1  UNL1        0.0346
     10 C         141.9271  141.2108  167.1678 C.ar    1  UNL1        0.1640
     11 O         142.9159  141.1402  168.2936 O.2     1  UNL1       -0.4384
     12 C         141.0702  142.5113  163.6085 C.3     1  UNL1        0.0434
     13 C         140.1714  142.6565  162.4163 C.3     1  UNL1        0.0768
     14 N         138.7935  142.1009  162.2108 N.3     1  UNL1       -0.2720
     15 C         137.9737  141.2629  163.1466 C.3     1  UNL1        0.0768
     16 C         138.3295  140.7735  164.5191 C.3     1  UNL1        0.0434
     17 C         138.6678  141.8038  159.6327 C.3     1  UNL1        0.0294
     18 C         138.2075  140.4347  159.2281 C.3     1  UNL1        0.0666
     19 S         139.1340  139.2625  159.3601 S.3     1  UNL1       -0.0756
     20 C         139.6240  138.8427  160.7143 C.ar    1  UNL1        0.1930
     21 N         138.8725  137.9999  161.7016 N.ar    1  UNL1       -0.1224
     22 N         139.7356  137.8282  162.9163 N.ar    1  UNL1       -0.1328
     23 C         141.0206  138.5650  162.6797 C.ar    1  UNL1        0.1434
     24 N         140.9516  139.1920  161.3188 N.ar    1  UNL1       -0.2918
     25 C         142.0223  140.0224  160.6753 C.3     1  UNL1        0.1337
     26 C         142.1723  138.6584  163.6362 C.3     1  UNL1        0.0638
     27 C         143.4353  139.3546  163.2236 C.3     1  UNL1        0.0397
     28 C         144.5870  139.4481  164.1800 C.3     1  UNL1        0.1426
     29 O         144.4758  138.8453  165.5490 O.3     1  UNL1       -0.3538
     30 C         143.2129  138.1491  165.9616 C.3     1  UNL1        0.1426
     31 C         142.0611  138.0557  165.0052 C.3     1  UNL1        0.0397
@<TRIPOS>BOND
     1     2     3    1
     2     3     4   ar
     3     4     5   ar
     4     5     6   ar
     5     6     7   ar
     6     7     8   ar
     7     8     9   ar
     8     9    10   ar
     9    10    11   ar
    10     8    12    1
    11    12    13    1
    12    13    14    1
    13    14     1    1
    14     1    17    1
    15    17    18    1
    16    18    19    1
    17    19    20    1
    18    20    21   ar
    19    21    22   ar
    20    22    23   ar
    21    23    26    1
    22    26    27    1
    23    27    28    1
    24    28    29    1
    25    29    30    1
    26    30    31    1
    27    23    24   ar
    28    24    25    1
    29    14    15    1
    30    15    16    1
    31    11     3   ar
    32    24    20   ar
    33    10     5   ar
    34    31    26    1
    35    16     7    1
@<TRIPOS>MOLECULE
*****
 31 35 0 0 0
SMALL
GASTEIGER

@<TRIPOS>ATOM
      1 C         137.7183  138.6675  161.7391 C.3     1  UNL1        0.0730
      2 C         143.2748  142.8591  170.5039 C.3     1  UNL1        0.0950
      3 C         142.5301  142.2973  169.3292 C.ar    1  UNL1        0.2062
      4 N         142.8447  141.0152  168.6170 N.ar    1  UNL1       -0.2121
      5 C         141.8491  140.8446  167.5082 C.ar    1  UNL1        0.1182
      6 C         141.6692  139.7697  166.4774 C.ar    1  UNL1        0.0178
      7 C         140.5592  139.8716  165.4736 C.ar    1  UNL1       -0.0230
      8 C         139.6294  141.0481  165.5004 C.ar    1  UNL1       -0.0216
      9 C         139.8093  142.1230  166.5311 C.ar    1  UNL1        0.0346
     10 C         140.9192  142.0212  167.5350 C.ar    1  UNL1        0.1640
     11 O         141.3401  142.9190  168.6605 O.2     1  UNL1       -0.4384
     12 C         138.4673  141.3426  164.5987 C.3     1  UNL1        0.0434
     13 C         137.9482  140.5330  163.4475 C.3     1  UNL1        0.0768
     14 N         138.4630  139.2293  162.9137 N.3     1  UNL1       -0.2720
     15 C         139.6239  138.4128  163.3992 C.3     1  UNL1        0.0768
     16 C         140.5569  138.6987  164.5384 C.3     1  UNL1        0.0434
     17 C         137.2772  139.5732  160.6277 C.3     1  UNL1        0.0294
     18 C         138.2508  139.9827  159.5626 C.3     1  UNL1        0.0666
     19 S         138.5447  141.4356  159.3335 S.3     1  UNL1       -0.0756
     20 C         139.0751  142.2793  160.4546 C.ar    1  UNL1        0.1930
     21 N         138.3175  143.3437  161.1916 N.ar    1  UNL1       -0.1224
     22 N         139.2304  143.9291  162.2280 N.ar    1  UNL1       -0.1328
     23 C         140.5521  143.2264  162.1314 C.ar    1  UNL1        0.1434
     24 N         140.4562  142.2068  161.0354 N.ar    1  UNL1       -0.2918
     25 C         141.5493  141.2779  160.5972 C.3     1  UNL1        0.1337
     26 C         141.7581  143.4960  162.9816 C.3     1  UNL1        0.0638
     27 C         142.3878  142.3824  163.7648 C.3     1  UNL1        0.0397
     28 C         143.5938  142.6520  164.6150 C.3     1  UNL1        0.1426
     29 O         144.1702  144.0352  164.6821 O.3     1  UNL1       -0.3538
     30 C         143.5405  145.1488  163.8990 C.3     1  UNL1        0.1426
     31 C         142.3345  144.8792  163.0487 C.3     1  UNL1        0.0397
@<TRIPOS>BOND
     1     2     3    1
     2     3     4   ar
     3     4     5   ar
     4     5     6   ar
     5     6     7   ar
     6     7     8   ar
     7     8     9   ar
     8     9    10   ar
     9    10    11   ar
    10     8    12    1
    11    12    13    1
    12    13    14    1
    13    14     1    1
    14     1    17    1
    15    17    18    1
    16    18    19    1
    17    19    20    1
    18    20    21   ar
    19    21    22   ar
    20    22    23   ar
    21    23    26    1
    22    26    27    1
    23    27    28    1
    24    28    29    1
    25    29    30    1
    26    30    31    1
    27    23    24   ar
    28    24    25    1
    29    14    15    1
    30    15    16    1
    31    11     3   ar
    32    24    20   ar
    33    10     5   ar
    34    31    26    1
    35    16     7    1
@<TRIPOS>MOLECULE
*****
 31 35 0 0 0
SMALL
GASTEIGER

@<TRIPOS>ATOM
      1 C         143.9355  137.7742  161.4122 C.3     1  UNL1        0.0730
      2 C         139.8509  142.7976  170.5417 C.3     1  UNL1        0.0950
      3 C         140.3983  142.1243  169.3182 C.ar    1  UNL1        0.2062
      4 N         139.7950  140.9434  168.6171 N.ar    1  UNL1       -0.2121
      5 C         140.6690  140.6031  167.4465 C.ar    1  UNL1        0.1182
      6 C         140.5713  139.5347  166.3981 C.ar    1  UNL1        0.0178
      7 C         141.6172  139.4370  165.3272 C.ar    1  UNL1       -0.0230
      8 C         142.7606  140.4075  165.3049 C.ar    1  UNL1       -0.0216
      9 C         142.8583  141.4758  166.3532 C.ar    1  UNL1        0.0346
     10 C         141.8125  141.5736  167.4241 C.ar    1  UNL1        0.1640
     11 O         141.6452  142.5138  168.5809 O.2     1  UNL1       -0.4384
     12 C         143.9016  140.4863  164.3343 C.3     1  UNL1        0.0434
     13 C         144.1808  139.6139  163.1463 C.3     1  UNL1        0.0768
     14 N         143.3881  138.4474  162.6357 N.3     1  UNL1       -0.2720
     15 C         142.1203  137.8651  163.1868 C.3     1  UNL1        0.0768
     16 C         141.3322  138.3055  164.3846 C.3     1  UNL1        0.0434
     17 C         143.1032  137.6888  160.1672 C.3     1  UNL1        0.0294
     18 C         142.9458  138.8925  159.2861 C.3     1  UNL1        0.0666
     19 S         141.5785  139.4386  158.9994 S.3     1  UNL1       -0.0756
     20 C         140.6683  139.8136  160.1312 C.ar    1  UNL1        0.1930
     21 N         139.6578  138.9177  160.7839 N.ar    1  UNL1       -0.1224
     22 N         138.9737  139.7008  161.8650 N.ar    1  UNL1       -0.1328
     23 C         139.5615  141.0807  161.8805 C.ar    1  UNL1        0.1434
     24 N         140.6089  141.1505  160.8089 N.ar    1  UNL1       -0.2918
     25 C         141.4491  142.3470  160.4739 C.3     1  UNL1        0.1337
     26 C         139.1706  142.1953  162.8051 C.3     1  UNL1        0.0638
     27 C         139.8551  142.3443  164.1315 C.3     1  UNL1        0.0397
     28 C         139.4642  143.4588  165.0562 C.3     1  UNL1        0.1426
     29 O         138.3889  144.4243  164.6545 O.3     1  UNL1       -0.3538
     30 C         137.7044  144.2753  163.3281 C.3     1  UNL1        0.1426
     31 C         138.0953  143.1608  162.4035 C.3     1  UNL1        0.0397
@<TRIPOS>BOND
     1     2     3    1
     2     3     4   ar
     3     4     5   ar
     4     5     6   ar
     5     6     7   ar
     6     7     8   ar
     7     8     9   ar
     8     9    10   ar
     9    10    11   ar
    10     8    12    1
    11    12    13    1
    12    13    14    1
    13    14     1    1
    14     1    17    1
    15    17    18    1
    16    18    19    1
    17    19    20    1
    18    20    21   ar
    19    21    22   ar
    20    22    23   ar
    21    23    26    1
    22    26    27    1
    23    27    28    1
    24    28    29    1
    25    29    30    1
    26    30    31    1
    27    23    24   ar
    28    24    25    1
    29    14    15    1
    30    15    16    1
    31    11     3   ar
    32    24    20   ar
    33    10     5   ar
    34    31    26    1
    35    16     7    1
@<TRIPOS>MOLECULE
*****
 31 35 0 0 0
SMALL
GASTEIGER

@<TRIPOS>ATOM
      1 C         143.9135  138.1632  161.4256 C.3     1  UNL1        0.0730
      2 C         139.7709  142.8332  170.7152 C.3     1  UNL1        0.0950
      3 C         140.3261  142.2073  169.4702 C.ar    1  UNL1        0.2062
      4 N         141.5588  142.6464  168.7369 N.ar    1  UNL1       -0.2121
      5 C         141.7406  141.7429  167.5534 C.ar    1  UNL1        0.1182
      6 C         142.7816  141.6997  166.4743 C.ar    1  UNL1        0.0178
      7 C         142.7022  140.6588  165.3970 C.ar    1  UNL1       -0.0230
      8 C         141.5820  139.6615  165.3989 C.ar    1  UNL1       -0.0216
      9 C         140.5410  139.7047  166.4779 C.ar    1  UNL1        0.0346
     10 C         140.6203  140.7454  167.5553 C.ar    1  UNL1        0.1640
     11 O         139.7461  141.0325  168.7399 O.2     1  UNL1       -0.4384
     12 C         141.3175  138.5502  164.4266 C.3     1  UNL1        0.0434
     13 C         142.1082  138.1620  163.2124 C.3     1  UNL1        0.0768
     14 N         143.3583  138.7891  162.6706 N.3     1  UNL1       -0.2720
     15 C         144.1268  139.9594  163.2091 C.3     1  UNL1        0.0768
     16 C         143.8348  140.7915  164.4224 C.3     1  UNL1        0.0434
     17 C         143.4919  138.6710  160.0785 C.3     1  UNL1        0.0294
     18 C         144.0293  139.9744  159.5664 C.3     1  UNL1        0.0666
     19 S         143.0869  141.0342  159.0779 S.3     1  UNL1       -0.0756
     20 C         142.6077  142.1021  160.0160 C.ar    1  UNL1        0.1930
     21 N         143.2039  143.4694  160.1738 N.ar    1  UNL1       -0.1224
     22 N         142.4130  144.2025  161.2164 N.ar    1  UNL1       -0.1328
     23 C         141.3280  143.2882  161.7030 C.ar    1  UNL1        0.1434
     24 N         141.4483  141.9900  160.9611 N.ar    1  UNL1       -0.2918
     25 C         140.5644  140.7905  161.1341 C.3     1  UNL1        0.1337
     26 C         140.3026  143.6148  162.7479 C.3     1  UNL1        0.0638
     27 C         140.6768  143.5873  164.2003 C.3     1  UNL1        0.0397
     28 C         139.6514  143.9138  165.2453 C.3     1  UNL1        0.1426
     29 O         138.2519  144.2678  164.8380 O.3     1  UNL1       -0.3538
     30 C         137.8777  144.2953  163.3857 C.3     1  UNL1        0.1426
     31 C         138.9031  143.9688  162.3407 C.3     1  UNL1        0.0397
@<TRIPOS>BOND
     1     2     3    1
     2     3     4   ar
     3     4     5   ar
     4     5     6   ar
     5     6     7   ar
     6     7     8   ar
     7     8     9   ar
     8     9    10   ar
     9    10    11   ar
    10     8    12    1
    11    12    13    1
    12    13    14    1
    13    14     1    1
    14     1    17    1
    15    17    18    1
    16    18    19    1
    17    19    20    1
    18    20    21   ar
    19    21    22   ar
    20    22    23   ar
    21    23    26    1
    22    26    27    1
    23    27    28    1
    24    28    29    1
    25    29    30    1
    26    30    31    1
    27    23    24   ar
    28    24    25    1
    29    14    15    1
    30    15    16    1
    31    11     3   ar
    32    24    20   ar
    33    10     5   ar
    34    31    26    1
    35    16     7    1
@<TRIPOS>MOLECULE
*****
 31 35 0 0 0
SMALL
GASTEIGER

@<TRIPOS>ATOM
      1 C         139.9008  142.1308  159.9069 C.3     1  UNL1        0.0730
      2 C         142.6974  142.8645  170.7193 C.3     1  UNL1        0.0950
      3 C         142.3226  142.7662  169.2702 C.ar    1  UNL1        0.2062
      4 N         143.2096  142.2839  168.1608 N.ar    1  UNL1       -0.2121
      5 C         142.4302  142.3525  166.8811 C.ar    1  UNL1        0.1182
      6 C         142.7900  142.0050  165.4669 C.ar    1  UNL1        0.0178
      7 C         141.7810  142.1822  164.3712 C.ar    1  UNL1       -0.0230
      8 C         140.4124  142.7069  164.6896 C.ar    1  UNL1       -0.0216
      9 C         140.0526  143.0544  166.1037 C.ar    1  UNL1        0.0346
     10 C         141.0615  142.8772  167.1995 C.ar    1  UNL1        0.1640
     11 O         140.9950  143.1329  168.6761 O.2     1  UNL1       -0.4384
     12 C         139.2659  142.9572  163.7552 C.3     1  UNL1        0.0434
     13 C         139.2051  142.7445  162.2715 C.3     1  UNL1        0.0768
     14 N         140.2756  142.2292  161.3560 N.3     1  UNL1       -0.2720
     15 C         141.6714  141.7991  161.6978 C.3     1  UNL1        0.0768
     16 C         142.3414  141.7782  163.0397 C.3     1  UNL1        0.0434
     17 C         139.2372  140.8904  159.3863 C.3     1  UNL1        0.0294
     18 C         140.0388  139.6383  159.1865 C.3     1  UNL1        0.0666
     19 S         139.6559  138.3798  159.9071 S.3     1  UNL1       -0.0756
     20 C         140.0086  138.2075  161.3548 C.ar    1  UNL1        0.1930
     21 N         141.2219  137.5057  161.8893 N.ar    1  UNL1       -0.1224
     22 N         141.1732  137.5713  163.3870 N.ar    1  UNL1       -0.1328
     23 C         139.9298  138.3136  163.7783 C.ar    1  UNL1        0.1434
     24 N         139.2101  138.7068  162.5223 N.ar    1  UNL1       -0.2918
     25 C         137.9186  139.4661  162.4471 C.3     1  UNL1        0.1337
     26 C         139.4844  138.6106  165.1795 C.3     1  UNL1        0.0638
     27 C         140.3997  139.3379  166.1192 C.3     1  UNL1        0.0397
     28 C         139.9543  139.6349  167.5204 C.3     1  UNL1        0.1426
     29 O         138.5935  139.2046  167.9819 O.3     1  UNL1       -0.3538
     30 C         137.6782  138.4772  167.0422 C.3     1  UNL1        0.1426
     31 C         138.1236  138.1802  165.6410 C.3     1  UNL1        0.0397
@<TRIPOS>BOND
     1     2     3    1
     2     3     4   ar
     3     4     5   ar
     4     5     6   ar
     5     6     7   ar
     6     7     8   ar
     7     8     9   ar
     8     9    10   ar
     9    10    11   ar
    10     8    12    1
    11    12    13    1
    12    13    14    1
    13    14     1    1
    14     1    17    1
    15    17    18    1
    16    18    19    1
    17    19    20    1
    18    20    21   ar
    19    21    22   ar
    20    22    23   ar
    21    23    26    1
    22    26    27    1
    23    27    28    1
    24    28    29    1
    25    29    30    1
    26    30    31    1
    27    23    24   ar
    28    24    25    1
    29    14    15    1
    30    15    16    1
    31    11     3   ar
    32    24    20   ar
    33    10     5   ar
    34    31    26    1
    35    16     7    1
