@<TRIPOS>MOLECULE
*****
 32 36 0 0 0
SMALL
GASTEIGER

@<TRIPOS>ATOM
      1 C         138.5324  139.4568  164.3487 C.ar    1  UNL1        0.1564
      2 C         138.9821  138.0451  164.1148 C.ar    1  UNL1        0.0385
      3 C         139.3873  137.6052  162.7392 C.ar    1  UNL1        0.0033
      4 C         139.3426  138.5770  161.5974 C.ar    1  UNL1        0.0048
      5 C         138.8929  139.9887  161.8313 C.ar    1  UNL1        0.0567
      6 C         138.4877  140.4286  163.2069 C.ar    1  UNL1        0.1209
      7 N         138.0379  141.8404  163.4408 N.ar    1  UNL1       -0.2108
      8 C         137.9933  142.8122  162.2991 C.ar    1  UNL1        0.2163
      9 N         137.5435  144.2240  162.5329 N.pl3   1  UNL1       -0.3274
     10 N         138.3984  142.3723  160.9234 N.ar    1  UNL1       -0.1813
     11 N         138.4574  143.1006  159.6135 N.ar    1  UNL1       -0.1451
     12 C         138.9436  142.1389  158.5700 C.ar    1  UNL1        0.1769
     13 N         139.1851  140.8163  159.2351 N.ar    1  UNL1       -0.2086
     14 C         138.8482  140.9606  160.6896 C.ar    1  UNL1        0.1695
     15 H         137.2776  144.5127  163.4358 H       1  UNL1        0.1452
     16 H         137.5142  144.8618  161.7836 H       1  UNL1        0.1452
     17 C         137.9834  138.8858  166.8230 C.3     1  UNL1        0.2525
     18 O         138.1272  139.8967  165.7243 O.3     1  UNL1       -0.4699
     19 C         139.1518  142.4460  157.1165 C.3     1  UNL1        0.1408
     20 N         139.1646  143.8700  156.6452 N.3     1  UNL1       -0.2644
     21 C         140.2496  144.8007  157.0999 C.3     1  UNL1        0.0941
     22 C         140.2624  146.2247  156.6286 C.3     1  UNL1        0.1081
     23 N         139.1904  146.7179  155.7025 N.pl3   1  UNL1       -0.3046
     24 C         138.1055  145.7872  155.2478 C.3     1  UNL1        0.1067
     25 C         138.0927  144.3632  155.7192 C.3     1  UNL1        0.0777
     26 C         137.0078  143.4325  155.2645 C.3     1  UNL1        0.0192
     27 C         139.2033  148.1419  155.2312 C.ar    1  UNL1        0.0510
     28 C         139.9068  148.5037  153.9567 C.ar    1  UNL1        0.0352
     29 C         139.9197  149.9277  153.4854 C.ar    1  UNL1        0.1002
     30 N         139.2290  150.9898  154.2885 N.ar    1  UNL1       -0.2422
     31 C         138.5256  150.6280  155.5629 C.ar    1  UNL1        0.1002
     32 C         138.5127  149.2040  156.0343 C.ar    1  UNL1        0.0352
@<TRIPOS>BOND
     1    17    18    1
     2    18     1    1
     3     1     2   ar
     4     2     3   ar
     5     3     4   ar
     6     4     5   ar
     7     5     6   ar
     8     6     7   ar
     9     7     8   ar
    10     8     9    1
    11     8    10   ar
    12    10    11   ar
    13    11    12   ar
    14    12    19    1
    15    19    20    1
    16    20    21    1
    17    21    22    1
    18    22    23    1
    19    23    27    1
    20    27    28   ar
    21    28    29   ar
    22    29    30   ar
    23    30    31   ar
    24    31    32   ar
    25    23    24    1
    26    24    25    1
    27    25    26    1
    28    12    13   ar
    29    13    14   ar
    30     6     1   ar
    31    14    10   ar
    32    14     5   ar
    33    25    20    1
    34    32    27   ar
    35     9    15    1
    36     9    16    1
@<TRIPOS>MOLECULE
*****
 32 36 0 0 0
SMALL
GASTEIGER

@<TRIPOS>ATOM
      1 C         142.4101  137.9883  156.7063 C.ar    1  UNL1        0.1564
      2 C         141.3181  138.2441  155.7104 C.ar    1  UNL1        0.0385
      3 C         139.9360  138.5843  156.1837 C.ar    1  UNL1        0.0033
      4 C         139.6459  138.6687  157.6530 C.ar    1  UNL1        0.0048
      5 C         140.7380  138.4128  158.6489 C.ar    1  UNL1        0.0567
      6 C         142.1201  138.0726  158.1756 C.ar    1  UNL1        0.1209
      7 N         143.2122  137.8168  159.1716 N.ar    1  UNL1       -0.2108
      8 C         142.9222  137.9012  160.6408 C.ar    1  UNL1        0.2163
      9 N         144.0143  137.6453  161.6368 N.pl3   1  UNL1       -0.3274
     10 N         141.5401  138.2414  161.1141 N.ar    1  UNL1       -0.1813
     11 N         140.9594  138.3955  162.4885 N.ar    1  UNL1       -0.1451
     12 C         139.5084  138.7465  162.3420 C.ar    1  UNL1        0.1769
     13 N         139.1924  138.8094  160.8770 N.ar    1  UNL1       -0.2086
     14 C         140.4480  138.4972  160.1182 C.ar    1  UNL1        0.1695
     15 H         144.9214  137.4220  161.3262 H       1  UNL1        0.1452
     16 H         143.8239  137.7007  162.6011 H       1  UNL1        0.1452
     17 C         144.0828  136.2817  155.6866 C.3     1  UNL1        0.2525
     18 O         143.7923  137.6480  156.2330 O.3     1  UNL1       -0.4699
     19 C         138.5430  138.9917  163.4636 C.3     1  UNL1        0.1408
     20 N         139.0148  139.6406  164.7310 N.3     1  UNL1       -0.2644
     21 C         139.7183  140.9645  164.6789 C.3     1  UNL1        0.0941
     22 C         140.1901  141.6134  165.9462 C.3     1  UNL1        0.1081
     23 N         139.9585  140.9386  167.2657 N.pl3   1  UNL1       -0.3046
     24 C         139.2550  139.6148  167.3178 C.3     1  UNL1        0.1067
     25 C         138.7832  138.9658  166.0504 C.3     1  UNL1        0.0777
     26 C         138.0798  137.6421  166.1025 C.3     1  UNL1        0.0192
     27 C         140.4303  141.5875  168.5331 C.ar    1  UNL1        0.0510
     28 C         140.9129  140.7418  169.6742 C.ar    1  UNL1        0.0352
     29 C         141.3847  141.3907  170.9415 C.ar    1  UNL1        0.1002
     30 N         141.3740  142.8854  171.0678 N.ar    1  UNL1       -0.2422
     31 C         140.8915  143.7311  169.9268 C.ar    1  UNL1        0.1002
     32 C         140.4197  143.0821  168.6594 C.ar    1  UNL1        0.0352
@<TRIPOS>BOND
     1    17    18    1
     2    18     1    1
     3     1     2   ar
     4     2     3   ar
     5     3     4   ar
     6     4     5   ar
     7     5     6   ar
     8     6     7   ar
     9     7     8   ar
    10     8     9    1
    11     8    10   ar
    12    10    11   ar
    13    11    12   ar
    14    12    19    1
    15    19    20    1
    16    20    21    1
    17    21    22    1
    18    22    23    1
    19    23    27    1
    20    27    28   ar
    21    28    29   ar
    22    29    30   ar
    23    30    31   ar
    24    31    32   ar
    25    23    24    1
    26    24    25    1
    27    25    26    1
    28    12    13   ar
    29    13    14   ar
    30     6     1   ar
    31    14    10   ar
    32    14     5   ar
    33    25    20    1
    34    32    27   ar
    35     9    15    1
    36     9    16    1
@<TRIPOS>MOLECULE
*****
 32 36 0 0 0
SMALL
GASTEIGER

@<TRIPOS>ATOM
      1 C         140.6257  145.9298  157.0047 C.ar    1  UNL1        0.1564
      2 C         141.5064  145.4531  155.8881 C.ar    1  UNL1        0.0385
      3 C         142.5700  144.4299  156.1563 C.ar    1  UNL1        0.0033
      4 C         142.7528  143.8834  157.5412 C.ar    1  UNL1        0.0048
      5 C         141.8721  144.3602  158.6578 C.ar    1  UNL1        0.0567
      6 C         140.8086  145.3834  158.3896 C.ar    1  UNL1        0.1209
      7 N         139.9278  145.8602  159.5064 N.ar    1  UNL1       -0.2108
      8 C         140.1106  145.3137  160.8912 C.ar    1  UNL1        0.2163
      9 N         139.2299  145.7905  162.0080 N.pl3   1  UNL1       -0.3274
     10 N         141.1742  144.2905  161.1595 N.ar    1  UNL1       -0.1813
     11 N         141.5864  143.5760  162.4122 N.ar    1  UNL1       -0.1451
     12 C         142.7219  142.6576  162.0698 C.ar    1  UNL1        0.1769
     13 N         143.0114  142.8046  160.6054 N.ar    1  UNL1       -0.2086
     14 C         142.0549  143.8138  160.0428 C.ar    1  UNL1        0.1695
     15 H         138.5318  146.4621  161.8320 H       1  UNL1        0.1452
     16 H         139.3499  145.4318  162.9170 H       1  UNL1        0.1452
     17 C         138.8051  146.9262  155.4419 C.3     1  UNL1        0.2525
     18 O         139.5622  146.9530  156.7365 O.3     1  UNL1       -0.4699
     19 C         143.4415  141.7513  163.0243 C.3     1  UNL1        0.1408
     20 N         142.9590  141.6158  164.4381 N.3     1  UNL1       -0.2644
     21 C         141.9068  140.6020  164.7776 C.3     1  UNL1        0.0941
     22 C         141.4243  140.4665  166.1914 C.3     1  UNL1        0.1081
     23 N         141.9940  141.3448  167.2657 N.pl3   1  UNL1       -0.3046
     24 C         143.0462  142.3585  166.9262 C.3     1  UNL1        0.1067
     25 C         143.5287  142.4940  165.5124 C.3     1  UNL1        0.0777
     26 C         144.5808  143.5078  165.1729 C.3     1  UNL1        0.0192
     27 C         141.5116  141.2093  168.6795 C.ar    1  UNL1        0.0510
     28 C         140.3062  140.3697  168.9834 C.ar    1  UNL1        0.0352
     29 C         139.8238  140.2342  170.3972 C.ar    1  UNL1        0.1002
     30 N         140.5466  140.9383  171.5071 N.ar    1  UNL1       -0.2422
     31 C         141.7519  141.7779  171.2032 C.ar    1  UNL1        0.1002
     32 C         142.2343  141.9134  169.7894 C.ar    1  UNL1        0.0352
@<TRIPOS>BOND
     1    17    18    1
     2    18     1    1
     3     1     2   ar
     4     2     3   ar
     5     3     4   ar
     6     4     5   ar
     7     5     6   ar
     8     6     7   ar
     9     7     8   ar
    10     8     9    1
    11     8    10   ar
    12    10    11   ar
    13    11    12   ar
    14    12    19    1
    15    19    20    1
    16    20    21    1
    17    21    22    1
    18    22    23    1
    19    23    27    1
    20    27    28   ar
    21    28    29   ar
    22    29    30   ar
    23    30    31   ar
    24    31    32   ar
    25    23    24    1
    26    24    25    1
    27    25    26    1
    28    12    13   ar
    29    13    14   ar
    30     6     1   ar
    31    14    10   ar
    32    14     5   ar
    33    25    20    1
    34    32    27   ar
    35     9    15    1
    36     9    16    1
@<TRIPOS>MOLECULE
*****
 32 36 0 0 0
SMALL
GASTEIGER

@<TRIPOS>ATOM
      1 C         138.4398  139.6301  169.3238 C.ar    1  UNL1        0.1564
      2 C         137.7247  138.9672  168.1840 C.ar    1  UNL1        0.0385
      3 C         138.2599  139.0925  166.7884 C.ar    1  UNL1        0.0033
      4 C         139.5102  139.8808  166.5325 C.ar    1  UNL1        0.0048
      5 C         140.2252  140.5437  167.6723 C.ar    1  UNL1        0.0567
      6 C         139.6900  140.4184  169.0680 C.ar    1  UNL1        0.1209
      7 N         140.4051  141.0814  170.2078 N.ar    1  UNL1       -0.2108
      8 C         141.6554  141.8696  169.9520 C.ar    1  UNL1        0.2163
      9 N         142.3705  142.5326  171.0918 N.pl3   1  UNL1       -0.3274
     10 N         142.1906  141.9949  168.5563 N.ar    1  UNL1       -0.1813
     11 N         143.3919  142.7014  168.0017 N.ar    1  UNL1       -0.1451
     12 C         143.4193  142.4751  166.5191 C.ar    1  UNL1        0.1769
     13 N         142.2349  141.6287  166.1574 N.ar    1  UNL1       -0.2086
     14 C         141.4755  141.3320  167.4165 C.ar    1  UNL1        0.1695
     15 H         142.0192  142.4504  172.0078 H       1  UNL1        0.1452
     16 H         143.1911  143.0500  170.9238 H       1  UNL1        0.1452
     17 C         136.5757  138.8510  170.9573 C.3     1  UNL1        0.2525
     18 O         137.9046  139.5048  170.7195 O.3     1  UNL1       -0.4699
     19 C         144.4502  143.0026  165.5656 C.3     1  UNL1        0.1408
     20 N         144.3708  142.6561  164.1083 N.3     1  UNL1       -0.2644
     21 C         144.7359  141.2772  163.6442 C.3     1  UNL1        0.0941
     22 C         144.6565  140.9308  162.1869 C.3     1  UNL1        0.1081
     23 N         144.2120  141.9633  161.1937 N.pl3   1  UNL1       -0.3046
     24 C         143.8469  143.3421  161.6578 C.3     1  UNL1        0.1067
     25 C         143.9263  143.6886  163.1151 C.3     1  UNL1        0.0777
     26 C         143.5612  145.0674  163.5792 C.3     1  UNL1        0.0192
     27 C         144.1325  141.6169  159.7364 C.ar    1  UNL1        0.0510
     28 C         144.5724  142.6121  158.7039 C.ar    1  UNL1        0.0352
     29 C         144.4929  142.2657  157.2466 C.ar    1  UNL1        0.1002
     30 N         143.9737  140.9240  156.8219 N.ar    1  UNL1       -0.2422
     31 C         143.5339  139.9288  157.8544 C.ar    1  UNL1        0.1002
     32 C         143.6133  140.2753  159.3117 C.ar    1  UNL1        0.0352
@<TRIPOS>BOND
     1    17    18    1
     2    18     1    1
     3     1     2   ar
     4     2     3   ar
     5     3     4   ar
     6     4     5   ar
     7     5     6   ar
     8     6     7   ar
     9     7     8   ar
    10     8     9    1
    11     8    10   ar
    12    10    11   ar
    13    11    12   ar
    14    12    19    1
    15    19    20    1
    16    20    21    1
    17    21    22    1
    18    22    23    1
    19    23    27    1
    20    27    28   ar
    21    28    29   ar
    22    29    30   ar
    23    30    31   ar
    24    31    32   ar
    25    23    24    1
    26    24    25    1
    27    25    26    1
    28    12    13   ar
    29    13    14   ar
    30     6     1   ar
    31    14    10   ar
    32    14     5   ar
    33    25    20    1
    34    32    27   ar
    35     9    15    1
    36     9    16    1
@<TRIPOS>MOLECULE
*****
 32 36 0 0 0
SMALL
GASTEIGER

@<TRIPOS>ATOM
      1 C         139.4874  138.9348  164.6012 C.ar    1  UNL1        0.1564
      2 C         140.8118  138.6300  165.2359 C.ar    1  UNL1        0.0385
      3 C         141.9985  138.3072  164.3771 C.ar    1  UNL1        0.0033
      4 C         141.8608  138.2891  162.8836 C.ar    1  UNL1        0.0048
      5 C         140.5363  138.5939  162.2489 C.ar    1  UNL1        0.0567
      6 C         139.3496  138.9167  163.1077 C.ar    1  UNL1        0.1209
      7 N         138.0251  139.2215  162.4729 N.ar    1  UNL1       -0.2108
      8 C         137.8874  139.2034  160.9794 C.ar    1  UNL1        0.2163
      9 N         136.5629  139.5082  160.3446 N.pl3   1  UNL1       -0.3274
     10 N         139.0741  138.8806  160.1206 N.ar    1  UNL1       -0.1813
     11 N         139.2408  138.7876  158.6328 N.ar    1  UNL1       -0.1451
     12 C         140.6682  138.4253  158.3480 C.ar    1  UNL1        0.1769
     13 N         141.3838  138.2945  159.6598 N.ar    1  UNL1       -0.2086
     14 C         140.3985  138.5758  160.7553 C.ar    1  UNL1        0.1695
     15 H         135.7840  139.7201  160.9082 H       1  UNL1        0.1452
     16 H         136.4725  139.4963  159.3643 H       1  UNL1        0.1452
     17 C         137.9281  138.3515  166.5958 C.3     1  UNL1        0.2525
     18 O         138.3007  139.2576  165.4600 O.3     1  UNL1       -0.4699
     19 C         141.2739  138.2285  156.9898 C.3     1  UNL1        0.1408
     20 N         141.7882  136.8784  156.5865 N.3     1  UNL1       -0.2644
     21 C         143.0150  136.3167  157.2419 C.3     1  UNL1        0.0941
     22 C         143.5293  134.9666  156.8386 C.3     1  UNL1        0.1081
     23 N         142.8168  134.1781  155.7799 N.pl3   1  UNL1       -0.3046
     24 C         141.5900  134.7398  155.1246 C.3     1  UNL1        0.1067
     25 C         141.0757  136.0899  155.5279 C.3     1  UNL1        0.0777
     26 C         139.8489  136.6516  154.8726 C.3     1  UNL1        0.0192
     27 C         143.3311  132.8280  155.3766 C.ar    1  UNL1        0.0510
     28 C         144.3315  132.1180  156.2398 C.ar    1  UNL1        0.0352
     29 C         144.8458  130.7679  155.8365 C.ar    1  UNL1        0.1002
     30 N         144.3597  130.1278  154.5700 N.ar    1  UNL1       -0.2422
     31 C         143.3593  130.8378  153.7069 C.ar    1  UNL1        0.1002
     32 C         142.8450  132.1879  154.1102 C.ar    1  UNL1        0.0352
@<TRIPOS>BOND
     1    17    18    1
     2    18     1    1
     3     1     2   ar
     4     2     3   ar
     5     3     4   ar
     6     4     5   ar
     7     5     6   ar
     8     6     7   ar
     9     7     8   ar
    10     8     9    1
    11     8    10   ar
    12    10    11   ar
    13    11    12   ar
    14    12    19    1
    15    19    20    1
    16    20    21    1
    17    21    22    1
    18    22    23    1
    19    23    27    1
    20    27    28   ar
    21    28    29   ar
    22    29    30   ar
    23    30    31   ar
    24    31    32   ar
    25    23    24    1
    26    24    25    1
    27    25    26    1
    28    12    13   ar
    29    13    14   ar
    30     6     1   ar
    31    14    10   ar
    32    14     5   ar
    33    25    20    1
    34    32    27   ar
    35     9    15    1
    36     9    16    1
@<TRIPOS>MOLECULE
*****
 32 36 0 0 0
SMALL
GASTEIGER

@<TRIPOS>ATOM
      1 C         141.0977  140.6303  168.9667 C.ar    1  UNL1        0.1564
      2 C         142.3692  140.9911  169.6760 C.ar    1  UNL1        0.0385
      3 C         143.3650  141.8980  169.0158 C.ar    1  UNL1        0.0033
      4 C         143.0893  142.4442  167.6463 C.ar    1  UNL1        0.0048
      5 C         141.8179  142.0834  166.9370 C.ar    1  UNL1        0.0567
      6 C         140.8221  141.1764  167.5972 C.ar    1  UNL1        0.1209
      7 N         139.5506  140.8157  166.8877 N.ar    1  UNL1       -0.2108
      8 C         139.2749  141.3618  165.5182 C.ar    1  UNL1        0.2163
      9 N         138.0034  141.0010  164.8088 N.pl3   1  UNL1       -0.3274
     10 N         140.2707  142.2687  164.8580 N.ar    1  UNL1       -0.1813
     11 N         140.2733  142.9551  163.5242 N.ar    1  UNL1       -0.1451
     12 C         141.5463  143.7401  163.4093 C.ar    1  UNL1        0.1769
     13 N         142.3305  143.5389  164.6721 N.ar    1  UNL1       -0.2086
     14 C         141.5422  142.6295  165.5673 C.ar    1  UNL1        0.1695
     15 H         137.3499  140.4058  165.2421 H       1  UNL1        0.1452
     16 H         137.8225  141.3595  163.9099 H       1  UNL1        0.1452
     17 C         138.8795  140.2992  170.2780 C.3     1  UNL1        0.2525
     18 O         140.1019  139.7234  169.6269 O.3     1  UNL1       -0.4699
     19 C         141.9621  144.5790  162.2374 C.3     1  UNL1        0.1408
     20 N         142.7086  143.9552  161.0957 N.3     1  UNL1       -0.2644
     21 C         143.9712  143.1879  161.3551 C.3     1  UNL1        0.0941
     22 C         144.7177  142.5641  160.2134 C.3     1  UNL1        0.1081
     23 N         144.2016  142.7074  158.8123 N.pl3   1  UNL1       -0.3046
     24 C         142.9391  143.4746  158.5529 C.3     1  UNL1        0.1067
     25 C         142.1925  144.0985  159.6946 C.3     1  UNL1        0.0777
     26 C         140.9300  144.8657  159.4352 C.3     1  UNL1        0.0192
     27 C         144.9481  142.0836  157.6705 C.ar    1  UNL1        0.0510
     28 C         146.3009  142.6045  157.2851 C.ar    1  UNL1        0.0352
     29 C         147.0474  141.9807  156.1433 C.ar    1  UNL1        0.1002
     30 N         146.4411  140.8358  155.3871 N.ar    1  UNL1       -0.2422
     31 C         145.0884  140.3149  155.7726 C.ar    1  UNL1        0.1002
     32 C         144.3419  140.9388  156.9143 C.ar    1  UNL1        0.0352
@<TRIPOS>BOND
     1    17    18    1
     2    18     1    1
     3     1     2   ar
     4     2     3   ar
     5     3     4   ar
     6     4     5   ar
     7     5     6   ar
     8     6     7   ar
     9     7     8   ar
    10     8     9    1
    11     8    10   ar
    12    10    11   ar
    13    11    12   ar
    14    12    19    1
    15    19    20    1
    16    20    21    1
    17    21    22    1
    18    22    23    1
    19    23    27    1
    20    27    28   ar
    21    28    29   ar
    22    29    30   ar
    23    30    31   ar
    24    31    32   ar
    25    23    24    1
    26    24    25    1
    27    25    26    1
    28    12    13   ar
    29    13    14   ar
    30     6     1   ar
    31    14    10   ar
    32    14     5   ar
    33    25    20    1
    34    32    27   ar
    35     9    15    1
    36     9    16    1
@<TRIPOS>MOLECULE
*****
 32 36 0 0 0
SMALL
GASTEIGER

@<TRIPOS>ATOM
      1 C         140.6041  140.9614  169.4148 C.ar    1  UNL1        0.1564
      2 C         141.2475  139.8669  170.2135 C.ar    1  UNL1        0.0385
      3 C         142.3355  139.0337  169.6037 C.ar    1  UNL1        0.0033
      4 C         142.7803  139.2951  168.1952 C.ar    1  UNL1        0.0048
      5 C         142.1369  140.3896  167.3966 C.ar    1  UNL1        0.0567
      6 C         141.0488  141.2228  168.0064 C.ar    1  UNL1        0.1209
      7 N         140.4055  142.3175  167.2076 N.ar    1  UNL1       -0.2108
      8 C         140.8502  142.5789  165.7991 C.ar    1  UNL1        0.2163
      9 N         140.2068  143.6735  165.0004 N.pl3   1  UNL1       -0.3274
     10 N         141.9383  141.7457  165.1893 N.ar    1  UNL1       -0.1813
     11 N         142.5811  141.7699  163.8343 N.ar    1  UNL1       -0.1451
     12 C         143.6218  140.6904  163.7955 C.ar    1  UNL1        0.1769
     13 N         143.6221  139.9988  165.1266 N.ar    1  UNL1       -0.2086
     14 C         142.5816  140.6511  165.9880 C.ar    1  UNL1        0.1695
     15 H         139.4927  144.2204  165.4006 H       1  UNL1        0.1452
     16 H         140.4987  143.8450  164.0759 H       1  UNL1        0.1452
     17 C         139.8533  143.0904  170.7007 C.3     1  UNL1        0.2525
     18 O         139.5160  141.7946  170.0246 O.3     1  UNL1       -0.4699
     19 C         144.5068  140.3602  162.6302 C.3     1  UNL1        0.1408
     20 N         143.9427  139.6431  161.4396 N.3     1  UNL1       -0.2644
     21 C         143.6314  138.1782  161.5244 C.3     1  UNL1        0.0941
     22 C         143.0674  137.4611  160.3338 C.3     1  UNL1        0.1081
     23 N         142.8145  138.2090  159.0583 N.pl3   1  UNL1       -0.3046
     24 C         143.1258  139.6739  158.9735 C.3     1  UNL1        0.1067
     25 C         143.6899  140.3910  160.1641 C.3     1  UNL1        0.0777
     26 C         144.0011  141.8558  160.0793 C.3     1  UNL1        0.0192
     27 C         142.2505  137.4920  157.8676 C.ar    1  UNL1        0.0510
     28 C         142.9897  136.3305  157.2721 C.ar    1  UNL1        0.0352
     29 C         142.4256  135.6134  156.0814 C.ar    1  UNL1        0.1002
     30 N         141.1223  136.0579  155.4863 N.ar    1  UNL1       -0.2422
     31 C         140.3832  137.2193  156.0818 C.ar    1  UNL1        0.1002
     32 C         140.9473  137.9364  157.2725 C.ar    1  UNL1        0.0352
@<TRIPOS>BOND
     1    17    18    1
     2    18     1    1
     3     1     2   ar
     4     2     3   ar
     5     3     4   ar
     6     4     5   ar
     7     5     6   ar
     8     6     7   ar
     9     7     8   ar
    10     8     9    1
    11     8    10   ar
    12    10    11   ar
    13    11    12   ar
    14    12    19    1
    15    19    20    1
    16    20    21    1
    17    21    22    1
    18    22    23    1
    19    23    27    1
    20    27    28   ar
    21    28    29   ar
    22    29    30   ar
    23    30    31   ar
    24    31    32   ar
    25    23    24    1
    26    24    25    1
    27    25    26    1
    28    12    13   ar
    29    13    14   ar
    30     6     1   ar
    31    14    10   ar
    32    14     5   ar
    33    25    20    1
    34    32    27   ar
    35     9    15    1
    36     9    16    1
@<TRIPOS>MOLECULE
*****
 32 36 0 0 0
SMALL
GASTEIGER

@<TRIPOS>ATOM
      1 C         141.1528  141.4663  168.9518 C.ar    1  UNL1        0.1564
      2 C         142.4053  142.2248  168.6264 C.ar    1  UNL1        0.0385
      3 C         143.0054  142.1287  167.2551 C.ar    1  UNL1        0.0033
      4 C         142.3531  141.2741  166.2091 C.ar    1  UNL1        0.0048
      5 C         141.1007  140.5156  166.5345 C.ar    1  UNL1        0.0567
      6 C         140.5005  140.6117  167.9058 C.ar    1  UNL1        0.1209
      7 N         139.2480  139.8531  168.2312 N.ar    1  UNL1       -0.2108
      8 C         138.5957  138.9984  167.1852 C.ar    1  UNL1        0.2163
      9 N         137.3432  138.2398  167.5106 N.pl3   1  UNL1       -0.3274
     10 N         139.1959  138.9023  165.8139 N.ar    1  UNL1       -0.1813
     11 N         138.7802  138.1459  164.5871 N.ar    1  UNL1       -0.1451
     12 C         139.7758  138.4369  163.5036 C.ar    1  UNL1        0.1769
     13 N         140.8068  139.3732  164.0607 N.ar    1  UNL1       -0.2086
     14 C         140.4483  139.6609  165.4885 C.ar    1  UNL1        0.1695
     15 H         136.9493  138.3029  168.4107 H       1  UNL1        0.1452
     16 H         136.9151  137.6789  166.8241 H       1  UNL1        0.1452
     17 C         139.7630  142.7767  170.7128 C.3     1  UNL1        0.2525
     18 O         140.5527  141.5624  170.3231 O.3     1  UNL1       -0.4699
     19 C         139.7457  137.8880  162.1079 C.3     1  UNL1        0.1408
     20 N         139.2586  138.7432  160.9760 N.3     1  UNL1       -0.2644
     21 C         137.8639  139.2951  160.9992 C.3     1  UNL1        0.0941
     22 C         137.3768  140.1503  159.8673 C.3     1  UNL1        0.1081
     23 N         138.2844  140.4537  158.7121 N.pl3   1  UNL1       -0.3046
     24 C         139.6790  139.9019  158.6889 C.3     1  UNL1        0.1067
     25 C         140.1661  139.0466  159.8208 C.3     1  UNL1        0.0777
     26 C         141.5606  138.4948  159.7976 C.3     1  UNL1        0.0192
     27 C         137.7973  141.3090  157.5802 C.ar    1  UNL1        0.0510
     28 C         138.5218  142.5753  157.2313 C.ar    1  UNL1        0.0352
     29 C         138.0347  143.4305  156.0993 C.ar    1  UNL1        0.1002
     30 N         136.8231  143.0195  155.3163 N.ar    1  UNL1       -0.2422
     31 C         136.0986  141.7533  155.6653 C.ar    1  UNL1        0.1002
     32 C         136.5857  140.8980  156.7972 C.ar    1  UNL1        0.0352
@<TRIPOS>BOND
     1    17    18    1
     2    18     1    1
     3     1     2   ar
     4     2     3   ar
     5     3     4   ar
     6     4     5   ar
     7     5     6   ar
     8     6     7   ar
     9     7     8   ar
    10     8     9    1
    11     8    10   ar
    12    10    11   ar
    13    11    12   ar
    14    12    19    1
    15    19    20    1
    16    20    21    1
    17    21    22    1
    18    22    23    1
    19    23    27    1
    20    27    28   ar
    21    28    29   ar
    22    29    30   ar
    23    30    31   ar
    24    31    32   ar
    25    23    24    1
    26    24    25    1
    27    25    26    1
    28    12    13   ar
    29    13    14   ar
    30     6     1   ar
    31    14    10   ar
    32    14     5   ar
    33    25    20    1
    34    32    27   ar
    35     9    15    1
    36     9    16    1
@<TRIPOS>MOLECULE
*****
 32 36 0 0 0
SMALL
GASTEIGER

@<TRIPOS>ATOM
      1 C         144.1248  131.5084  155.5467 C.ar    1  UNL1        0.1564
      2 C         144.9646  131.1397  156.7336 C.ar    1  UNL1        0.0385
      3 C         145.1149  132.1024  157.8741 C.ar    1  UNL1        0.0033
      4 C         144.4255  133.4338  157.8276 C.ar    1  UNL1        0.0048
      5 C         143.5857  133.8024  156.6406 C.ar    1  UNL1        0.0567
      6 C         143.4354  132.8397  155.5002 C.ar    1  UNL1        0.1209
      7 N         142.5955  133.2084  154.3132 N.ar    1  UNL1       -0.2108
      8 C         141.9061  134.5397  154.2667 C.ar    1  UNL1        0.2163
      9 N         141.0663  134.9084  153.0798 N.pl3   1  UNL1       -0.3274
     10 N         142.0565  135.5024  155.4072 N.ar    1  UNL1       -0.1813
     11 N         141.5010  136.8760  155.6411 N.ar    1  UNL1       -0.1451
     12 C         141.9974  137.3562  156.9725 C.ar    1  UNL1        0.1769
     13 N         142.8598  136.2795  157.5616 N.ar    1  UNL1       -0.2086
     14 C         142.8962  135.1338  156.5941 C.ar    1  UNL1        0.1695
     15 H         140.9676  134.2765  152.3313 H       1  UNL1        0.1452
     16 H         140.6138  135.7822  153.0493 H       1  UNL1        0.1452
     17 C         144.4232  129.1229  154.5617 C.3     1  UNL1        0.2525
     18 O         143.9744  130.5456  154.4063 O.3     1  UNL1       -0.4699
     19 C         141.6862  138.6808  157.6042 C.3     1  UNL1        0.1408
     20 N         141.1018  138.7345  158.9846 N.3     1  UNL1       -0.2644
     21 C         139.6264  138.5491  159.1822 C.3     1  UNL1        0.0941
     22 C         139.0420  138.6028  160.5626 C.3     1  UNL1        0.1081
     23 N         139.9330  138.8421  161.7454 N.pl3   1  UNL1       -0.3046
     24 C         141.4083  139.0275  161.5478 C.3     1  UNL1        0.1067
     25 C         141.9927  138.9737  160.1674 C.3     1  UNL1        0.0777
     26 C         143.4680  139.1592  159.9698 C.3     1  UNL1        0.0192
     27 C         139.3486  138.8958  163.1259 C.ar    1  UNL1        0.0510
     28 C         138.7469  140.1716  163.6364 C.ar    1  UNL1        0.0352
     29 C         138.1625  140.2253  165.0169 C.ar    1  UNL1        0.1002
     30 N         138.1798  139.0033  165.8867 N.ar    1  UNL1       -0.2422
     31 C         138.7814  137.7277  165.3761 C.ar    1  UNL1        0.1002
     32 C         139.3658  137.6739  163.9957 C.ar    1  UNL1        0.0352
@<TRIPOS>BOND
     1    17    18    1
     2    18     1    1
     3     1     2   ar
     4     2     3   ar
     5     3     4   ar
     6     4     5   ar
     7     5     6   ar
     8     6     7   ar
     9     7     8   ar
    10     8     9    1
    11     8    10   ar
    12    10    11   ar
    13    11    12   ar
    14    12    19    1
    15    19    20    1
    16    20    21    1
    17    21    22    1
    18    22    23    1
    19    23    27    1
    20    27    28   ar
    21    28    29   ar
    22    29    30   ar
    23    30    31   ar
    24    31    32   ar
    25    23    24    1
    26    24    25    1
    27    25    26    1
    28    12    13   ar
    29    13    14   ar
    30     6     1   ar
    31    14    10   ar
    32    14     5   ar
    33    25    20    1
    34    32    27   ar
    35     9    15    1
    36     9    16    1
