@<TRIPOS>MOLECULE
*****
 38 44 0 0 0
SMALL
GASTEIGER

@<TRIPOS>ATOM
      1 C         140.1916  144.0943  157.3132 C.3     1  UNL1        0.0666
      2 S         139.0669  143.1706  157.6762 S.3     1  UNL1       -0.0756
      3 C         139.5079  140.9944  160.8598 C.ar    1  UNL1        0.1669
      4 N         138.5027  142.0017  161.3342 N.ar    1  UNL1       -0.1282
      5 N         138.2152  142.9394  160.1993 N.ar    1  UNL1       -0.1221
      6 C         139.0427  142.5118  159.0236 C.ar    1  UNL1        0.1932
      7 N         139.8416  141.3097  159.4318 N.ar    1  UNL1       -0.2884
      8 C         140.8051  140.5553  158.5643 C.3     1  UNL1        0.1340
      9 C         138.2117  138.9831  167.3038 C.3     1  UNL1        0.0521
     10 C         138.6786  139.2047  165.8956 C.ar    1  UNL1        0.0593
     11 C         138.1074  140.3297  165.0843 C.ar    1  UNL1        0.0147
     12 C         138.5742  140.5512  163.6762 C.ar    1  UNL1        0.0028
     13 C         139.6123  139.6478  163.0792 C.ar    1  UNL1        0.0206
     14 C         140.0791  139.8694  161.6710 C.ar    1  UNL1        0.0374
     15 C         141.1171  138.9660  161.0741 C.ar    1  UNL1        0.0031
     16 C         141.6883  137.8410  161.8854 C.ar    1  UNL1        0.0016
     17 C         141.2215  137.6194  163.2935 C.ar    1  UNL1        0.0191
     18 C         140.1834  138.5228  163.8904 C.ar    1  UNL1        0.0810
     19 N         139.7166  138.3012  165.2986 N.ar    1  UNL1       -0.2497
     20 C         140.4120  145.3527  158.0993 C.3     1  UNL1        0.0294
     21 C         141.5963  145.4689  159.0125 C.3     1  UNL1        0.0730
     22 N         141.6077  144.7386  160.3227 N.3     1  UNL1       -0.2720
     23 C         140.6988  145.2882  161.3819 C.3     1  UNL1        0.0768
     24 C         140.4842  144.7903  162.7806 C.3     1  UNL1        0.0434
     25 C         141.1253  143.6198  163.4652 C.ar    1  UNL1       -0.0230
     26 C         140.6280  143.4682  164.8723 C.ar    1  UNL1        0.0178
     27 C         141.1448  142.3550  165.7346 C.ar    1  UNL1        0.1182
     28 N         140.8422  141.9577  167.1490 N.ar    1  UNL1       -0.2121
     29 C         141.6693  140.7504  167.4784 C.ar    1  UNL1        0.2052
     30 O         142.4831  140.4017  166.2676 O.2     1  UNL1       -0.4384
     31 C         142.1590  141.3933  165.1899 C.ar    1  UNL1        0.1640
     32 C         142.6563  141.5449  163.7828 C.ar    1  UNL1        0.0346
     33 C         142.1394  142.6581  162.9205 C.ar    1  UNL1       -0.0216
     34 C         142.7629  142.6294  161.5565 C.3     1  UNL1        0.0434
     35 C         142.5262  143.5554  160.4004 C.3     1  UNL1        0.0768
     36 C         141.6806  140.0202  168.7886 C.3     1  UNL1        0.0766
     37 C         142.3522  139.0824  169.7474 C.3     1  UNL1        0.0097
     38 C         141.0283  139.6935  170.0993 C.3     1  UNL1        0.0097
@<TRIPOS>BOND
     1     9    10    1
     2    10    11   ar
     3    11    12   ar
     4    12    13   ar
     5    13    14   ar
     6    14     3    1
     7     3     4   ar
     8     4     5   ar
     9     5     6   ar
    10     6     2    1
    11     2     1    1
    12     1    20    1
    13    20    21    1
    14    21    22    1
    15    22    23    1
    16    23    24    1
    17    24    25    1
    18    25    26   ar
    19    26    27   ar
    20    27    28   ar
    21    28    29   ar
    22    29    36    1
    23    36    37    1
    24    37    38    1
    25    29    30   ar
    26    30    31   ar
    27    31    32   ar
    28    32    33   ar
    29    33    34    1
    30    34    35    1
    31     6     7   ar
    32     7     8    1
    33    14    15   ar
    34    15    16   ar
    35    16    17   ar
    36    17    18   ar
    37    18    19   ar
    38    19    10   ar
    39    18    13   ar
    40     7     3   ar
    41    35    22    1
    42    33    25   ar
    43    31    27   ar
    44    38    36    1
@<TRIPOS>MOLECULE
*****
 38 44 0 0 0
SMALL
GASTEIGER

@<TRIPOS>ATOM
      1 C         141.3288  141.8227  170.1497 C.3     1  UNL1        0.0666
      2 S         141.0310  140.3646  169.9624 S.3     1  UNL1       -0.0756
      3 C         139.9594  139.1432  166.4374 C.ar    1  UNL1        0.1669
      4 N         138.6361  139.1920  167.1420 N.ar    1  UNL1       -0.1282
      5 N         138.8765  139.6554  168.5482 N.ar    1  UNL1       -0.1221
      6 C         140.3484  139.8931  168.7127 C.ar    1  UNL1        0.1932
      7 N         141.0176  139.5766  167.4082 N.ar    1  UNL1       -0.2884
      8 C         142.4872  139.6760  167.1242 C.3     1  UNL1        0.1340
      9 C         138.1295  142.1666  160.5415 C.3     1  UNL1        0.0521
     10 C         138.6434  141.3083  161.6593 C.ar    1  UNL1        0.0593
     11 C         138.4179  141.7183  163.0844 C.ar    1  UNL1        0.0147
     12 C         138.9317  140.8600  164.2020 C.ar    1  UNL1        0.0028
     13 C         139.6711  139.5916  163.8946 C.ar    1  UNL1        0.0206
     14 C         140.1849  138.7332  165.0124 C.ar    1  UNL1        0.0374
     15 C         140.9242  137.4648  164.7048 C.ar    1  UNL1        0.0031
     16 C         141.1497  137.0548  163.2797 C.ar    1  UNL1        0.0016
     17 C         140.6359  137.9131  162.1621 C.ar    1  UNL1        0.0191
     18 C         139.8966  139.1815  162.4695 C.ar    1  UNL1        0.0810
     19 N         139.3827  140.0398  161.3518 N.ar    1  UNL1       -0.2497
     20 C         141.4272  142.7274  168.9571 C.3     1  UNL1        0.0294
     21 C         140.2004  143.0482  168.1559 C.3     1  UNL1        0.0730
     22 N         140.3251  143.4079  166.7050 N.3     1  UNL1       -0.2720
     23 C         141.5212  142.8456  165.9956 C.3     1  UNL1        0.0768
     24 C         141.9248  143.0188  164.5612 C.3     1  UNL1        0.0434
     25 C         141.2320  143.7970  163.4823 C.ar    1  UNL1       -0.0230
     26 C         141.9738  143.7099  162.1814 C.ar    1  UNL1        0.0178
     27 C         141.4480  144.4200  160.9692 C.ar    1  UNL1        0.1182
     28 N         141.9582  144.5157  159.5620 N.ar    1  UNL1       -0.2121
     29 C         141.0061  145.3721  158.7809 C.ar    1  UNL1        0.2052
     30 O         139.9074  145.8056  159.7055 O.2     1  UNL1       -0.4384
     31 C         140.1805  145.2173  161.0579 C.ar    1  UNL1        0.1640
     32 C         139.4388  145.3044  162.3588 C.ar    1  UNL1        0.0346
     33 C         139.9645  144.5943  163.5709 C.ar    1  UNL1       -0.0216
     34 C         139.0768  144.8102  164.7606 C.3     1  UNL1        0.0434
     35 C         139.2373  144.2821  166.1554 C.3     1  UNL1        0.0768
     36 C         141.1308  145.7317  157.3300 C.3     1  UNL1        0.0766
     37 C         140.6637  146.5195  156.1420 C.3     1  UNL1        0.0097
     38 C         141.8141  145.5667  156.0049 C.3     1  UNL1        0.0097
@<TRIPOS>BOND
     1     9    10    1
     2    10    11   ar
     3    11    12   ar
     4    12    13   ar
     5    13    14   ar
     6    14     3    1
     7     3     4   ar
     8     4     5   ar
     9     5     6   ar
    10     6     2    1
    11     2     1    1
    12     1    20    1
    13    20    21    1
    14    21    22    1
    15    22    23    1
    16    23    24    1
    17    24    25    1
    18    25    26   ar
    19    26    27   ar
    20    27    28   ar
    21    28    29   ar
    22    29    36    1
    23    36    37    1
    24    37    38    1
    25    29    30   ar
    26    30    31   ar
    27    31    32   ar
    28    32    33   ar
    29    33    34    1
    30    34    35    1
    31     6     7   ar
    32     7     8    1
    33    14    15   ar
    34    15    16   ar
    35    16    17   ar
    36    17    18   ar
    37    18    19   ar
    38    19    10   ar
    39    18    13   ar
    40     7     3   ar
    41    35    22    1
    42    33    25   ar
    43    31    27   ar
    44    38    36    1
@<TRIPOS>MOLECULE
*****
 38 44 0 0 0
SMALL
GASTEIGER

@<TRIPOS>ATOM
      1 C         143.6640  141.3671  156.9547 C.3     1  UNL1        0.0666
      2 S         142.6434  140.2681  156.9737 S.3     1  UNL1       -0.0756
      3 C         141.5409  138.5785  160.2897 C.ar    1  UNL1        0.1669
      4 N         142.7650  137.7805  159.9507 N.ar    1  UNL1       -0.1282
      5 N         143.3269  138.3163  158.6674 N.ar    1  UNL1       -0.1221
      6 C         142.4501  139.4455  158.2131 C.ar    1  UNL1        0.1932
      7 N         141.3464  139.6074  159.2157 N.ar    1  UNL1       -0.2884
      8 C         140.2418  140.6206  159.1550 C.3     1  UNL1        0.1340
      9 C         142.9764  138.8980  167.0044 C.3     1  UNL1        0.0521
     10 C         142.3986  138.7690  165.6261 C.ar    1  UNL1        0.0593
     11 C         143.2744  138.9655  164.4243 C.ar    1  UNL1        0.0147
     12 C         142.6965  138.8365  163.0461 C.ar    1  UNL1        0.0028
     13 C         141.2429  138.5110  162.8697 C.ar    1  UNL1        0.0206
     14 C         140.6651  138.3820  161.4914 C.ar    1  UNL1        0.0374
     15 C         139.2116  138.0565  161.3151 C.ar    1  UNL1        0.0031
     16 C         138.3358  137.8600  162.5170 C.ar    1  UNL1        0.0016
     17 C         138.9136  137.9890  163.8951 C.ar    1  UNL1        0.0191
     18 C         140.3672  138.3145  164.0715 C.ar    1  UNL1        0.0810
     19 N         140.9450  138.4435  165.4498 N.ar    1  UNL1       -0.2497
     20 C         143.5622  142.5021  157.9303 C.3     1  UNL1        0.0294
     21 C         144.5267  142.5956  159.0752 C.3     1  UNL1        0.0730
     22 N         144.0206  142.5625  160.4868 N.3     1  UNL1       -0.2720
     23 C         142.5288  142.5508  160.6432 C.3     1  UNL1        0.0768
     24 C         141.7211  142.5192  161.9069 C.3     1  UNL1        0.0434
     25 C         142.2058  142.4915  163.3260 C.ar    1  UNL1       -0.0230
     26 C         141.0614  142.4643  164.2955 C.ar    1  UNL1        0.0178
     27 C         141.3290  142.4341  165.7711 C.ar    1  UNL1        0.1182
     28 N         140.4114  142.4036  166.9572 N.ar    1  UNL1       -0.2121
     29 C         141.2562  142.3817  168.1965 C.ar    1  UNL1        0.2052
     30 O         142.6960  142.3988  167.7763 O.2     1  UNL1       -0.4384
     31 C         142.7410  142.4312  166.2774 C.ar    1  UNL1        0.1640
     32 C         143.8854  142.4583  165.3079 C.ar    1  UNL1        0.0346
     33 C         143.6177  142.4885  163.8323 C.ar    1  UNL1       -0.0216
     34 C         144.8939  142.5125  163.0443 C.3     1  UNL1        0.0434
     35 C         145.0731  142.5455  161.5554 C.3     1  UNL1        0.0768
     36 C         140.7499  142.3486  169.6081 C.3     1  UNL1        0.0766
     37 C         139.8450  142.8865  170.6766 C.3     1  UNL1        0.0097
     38 C         140.7782  141.7533  170.9846 C.3     1  UNL1        0.0097
@<TRIPOS>BOND
     1     9    10    1
     2    10    11   ar
     3    11    12   ar
     4    12    13   ar
     5    13    14   ar
     6    14     3    1
     7     3     4   ar
     8     4     5   ar
     9     5     6   ar
    10     6     2    1
    11     2     1    1
    12     1    20    1
    13    20    21    1
    14    21    22    1
    15    22    23    1
    16    23    24    1
    17    24    25    1
    18    25    26   ar
    19    26    27   ar
    20    27    28   ar
    21    28    29   ar
    22    29    36    1
    23    36    37    1
    24    37    38    1
    25    29    30   ar
    26    30    31   ar
    27    31    32   ar
    28    32    33   ar
    29    33    34    1
    30    34    35    1
    31     6     7   ar
    32     7     8    1
    33    14    15   ar
    34    15    16   ar
    35    16    17   ar
    36    17    18   ar
    37    18    19   ar
    38    19    10   ar
    39    18    13   ar
    40     7     3   ar
    41    35    22    1
    42    33    25   ar
    43    31    27   ar
    44    38    36    1
@<TRIPOS>MOLECULE
*****
 38 44 0 0 0
SMALL
GASTEIGER

@<TRIPOS>ATOM
      1 C         140.0744  144.3669  157.7853 C.3     1  UNL1        0.0666
      2 S         140.1505  142.8690  157.7987 S.3     1  UNL1       -0.0756
      3 C         140.4786  141.1294  161.2529 C.ar    1  UNL1        0.1669
      4 N         141.8655  140.9563  160.7083 N.ar    1  UNL1       -0.1282
      5 N         141.9113  141.5869  159.3481 N.ar    1  UNL1       -0.1221
      6 C         140.5528  142.1497  159.0520 C.ar    1  UNL1        0.1932
      7 N         139.6674  141.8670  160.2292 N.ar    1  UNL1       -0.2884
      8 C         138.2240  142.2538  160.3599 C.3     1  UNL1        0.1340
      9 C         143.8146  138.1141  166.4519 C.3     1  UNL1        0.0521
     10 C         142.8582  138.7479  165.4856 C.ar    1  UNL1        0.0593
     11 C         143.3479  139.2281  164.1516 C.ar    1  UNL1        0.0147
     12 C         142.3914  139.8619  163.1854 C.ar    1  UNL1        0.0028
     13 C         140.9454  140.0155  163.5532 C.ar    1  UNL1        0.0206
     14 C         139.9889  140.6493  162.5869 C.ar    1  UNL1        0.0374
     15 C         138.5429  140.8029  162.9548 C.ar    1  UNL1        0.0031
     16 C         138.0533  140.3227  164.2889 C.ar    1  UNL1        0.0016
     17 C         139.0096  139.6890  165.2550 C.ar    1  UNL1        0.0191
     18 C         140.4557  139.5353  164.8873 C.ar    1  UNL1        0.0810
     19 N         141.4121  138.9015  165.8535 N.ar    1  UNL1       -0.2497
     20 C         140.9087  145.1689  158.7398 C.3     1  UNL1        0.0294
     21 C         140.2906  145.7330  159.9846 C.3     1  UNL1        0.0730
     22 N         140.5498  145.0833  161.3115 N.3     1  UNL1       -0.2720
     23 C         139.3731  145.0046  162.2385 C.3     1  UNL1        0.0768
     24 C         139.3074  144.4213  163.6190 C.3     1  UNL1        0.0434
     25 C         140.4021  143.7728  164.4132 C.ar    1  UNL1       -0.0230
     26 C         139.9111  143.3229  165.7574 C.ar    1  UNL1        0.0178
     27 C         140.8509  142.6474  166.7116 C.ar    1  UNL1        0.1182
     28 N         140.6553  142.0992  168.0940 N.ar    1  UNL1       -0.2121
     29 C         141.9652  141.5349  168.5585 C.ar    1  UNL1        0.2052
     30 O         142.9703  141.7343  167.4632 O.2     1  UNL1       -0.4384
     31 C         142.2817  142.4219  166.3218 C.ar    1  UNL1        0.1640
     32 C         142.7727  142.8718  164.9776 C.ar    1  UNL1        0.0346
     33 C         141.8329  143.5473  164.0234 C.ar    1  UNL1       -0.0216
     34 C         142.5223  143.9146  162.7429 C.3     1  UNL1        0.0434
     35 C         141.9512  144.5982  161.5360 C.3     1  UNL1        0.0768
     36 C         142.2243  140.8852  169.8855 C.3     1  UNL1        0.0766
     37 C         142.0089  140.8297  171.3689 C.3     1  UNL1        0.0097
     38 C         142.8885  139.8152  170.7003 C.3     1  UNL1        0.0097
@<TRIPOS>BOND
     1     9    10    1
     2    10    11   ar
     3    11    12   ar
     4    12    13   ar
     5    13    14   ar
     6    14     3    1
     7     3     4   ar
     8     4     5   ar
     9     5     6   ar
    10     6     2    1
    11     2     1    1
    12     1    20    1
    13    20    21    1
    14    21    22    1
    15    22    23    1
    16    23    24    1
    17    24    25    1
    18    25    26   ar
    19    26    27   ar
    20    27    28   ar
    21    28    29   ar
    22    29    36    1
    23    36    37    1
    24    37    38    1
    25    29    30   ar
    26    30    31   ar
    27    31    32   ar
    28    32    33   ar
    29    33    34    1
    30    34    35    1
    31     6     7   ar
    32     7     8    1
    33    14    15   ar
    34    15    16   ar
    35    16    17   ar
    36    17    18   ar
    37    18    19   ar
    38    19    10   ar
    39    18    13   ar
    40     7     3   ar
    41    35    22    1
    42    33    25   ar
    43    31    27   ar
    44    38    36    1
@<TRIPOS>MOLECULE
*****
 38 44 0 0 0
SMALL
GASTEIGER

@<TRIPOS>ATOM
      1 C         142.7035  143.0027  157.3869 C.3     1  UNL1        0.0666
      2 S         143.9755  142.3332  157.8155 S.3     1  UNL1       -0.0756
      3 C         143.8636  139.9444  160.8727 C.ar    1  UNL1        0.1669
      4 N         143.8683  138.9631  159.7381 N.ar    1  UNL1       -0.1282
      5 N         143.9108  139.7386  158.4549 N.ar    1  UNL1       -0.1221
      6 C         143.9324  141.1991  158.7963 C.ar    1  UNL1        0.1932
      7 N         143.9032  141.3262  160.2905 N.ar    1  UNL1       -0.2884
      8 C         143.9120  142.6099  161.0665 C.3     1  UNL1        0.1340
      9 C         138.9413  137.0371  164.6896 C.3     1  UNL1        0.0521
     10 C         140.1624  137.6787  164.1004 C.ar    1  UNL1        0.0593
     11 C         140.2001  138.0195  162.6402 C.ar    1  UNL1        0.0147
     12 C         141.4213  138.6612  162.0510 C.ar    1  UNL1        0.0028
     13 C         142.6048  138.9620  162.9221 C.ar    1  UNL1        0.0206
     14 C         143.8260  139.6036  162.3329 C.ar    1  UNL1        0.0374
     15 C         145.0094  139.9044  163.2041 C.ar    1  UNL1        0.0031
     16 C         144.9717  139.5636  164.6644 C.ar    1  UNL1        0.0016
     17 C         143.7506  138.9220  165.2535 C.ar    1  UNL1        0.0191
     18 C         142.5671  138.6212  164.3824 C.ar    1  UNL1        0.0810
     19 N         141.3459  137.9796  164.9716 N.ar    1  UNL1       -0.2497
     20 C         142.3830  144.3852  157.8731 C.3     1  UNL1        0.0294
     21 C         141.0993  144.6441  158.6046 C.3     1  UNL1        0.0730
     22 N         140.9139  144.1266  160.0002 N.3     1  UNL1       -0.2720
     23 C         140.2815  142.7710  160.1129 C.3     1  UNL1        0.0768
     24 C         139.9644  141.9870  161.3519 C.3     1  UNL1        0.0434
     25 C         140.2013  142.3650  162.7839 C.ar    1  UNL1       -0.0230
     26 C         139.7344  141.2891  163.7191 C.ar    1  UNL1        0.0178
     27 C         139.8800  141.4685  165.2012 C.ar    1  UNL1        0.1182
     28 N         139.5143  140.5884  166.3595 N.ar    1  UNL1       -0.2121
     29 C         139.9008  141.2997  167.6223 C.ar    1  UNL1        0.2052
     30 O         140.5053  142.6194  167.2445 O.2     1  UNL1       -0.4384
     31 C         140.4925  142.7238  165.7482 C.ar    1  UNL1        0.1640
     32 C         140.9594  143.7997  164.8130 C.ar    1  UNL1        0.0346
     33 C         140.8138  143.6203  163.3309 C.ar    1  UNL1       -0.0216
     34 C         141.3407  144.8076  162.5808 C.3     1  UNL1        0.0434
     35 C         141.3852  145.0328  161.0985 C.3     1  UNL1        0.0768
     36 C         139.7153  140.7821  169.0179 C.3     1  UNL1        0.0766
     37 C         138.8110  140.3919  170.1492 C.3     1  UNL1        0.0097
     38 C         140.2984  140.2756  170.3038 C.3     1  UNL1        0.0097
@<TRIPOS>BOND
     1     9    10    1
     2    10    11   ar
     3    11    12   ar
     4    12    13   ar
     5    13    14   ar
     6    14     3    1
     7     3     4   ar
     8     4     5   ar
     9     5     6   ar
    10     6     2    1
    11     2     1    1
    12     1    20    1
    13    20    21    1
    14    21    22    1
    15    22    23    1
    16    23    24    1
    17    24    25    1
    18    25    26   ar
    19    26    27   ar
    20    27    28   ar
    21    28    29   ar
    22    29    36    1
    23    36    37    1
    24    37    38    1
    25    29    30   ar
    26    30    31   ar
    27    31    32   ar
    28    32    33   ar
    29    33    34    1
    30    34    35    1
    31     6     7   ar
    32     7     8    1
    33    14    15   ar
    34    15    16   ar
    35    16    17   ar
    36    17    18   ar
    37    18    19   ar
    38    19    10   ar
    39    18    13   ar
    40     7     3   ar
    41    35    22    1
    42    33    25   ar
    43    31    27   ar
    44    38    36    1
@<TRIPOS>MOLECULE
*****
 38 44 0 0 0
SMALL
GASTEIGER

@<TRIPOS>ATOM
      1 C         143.1007  142.3415  157.0074 C.3     1  UNL1        0.0666
      2 S         141.6777  141.8734  157.0823 S.3     1  UNL1       -0.0756
      3 C         139.9827  141.3495  160.5346 C.ar    1  UNL1        0.1669
      4 N         140.5059  139.9715  160.2565 N.ar    1  UNL1       -0.1282
      5 N         141.2045  140.0000  158.9294 N.ar    1  UNL1       -0.1221
      6 C         141.1131  141.3957  158.3874 C.ar    1  UNL1        0.1932
      7 N         140.3580  142.2297  159.3794 N.ar    1  UNL1       -0.2884
      8 C         140.0349  143.6879  159.2407 C.3     1  UNL1        0.1340
      9 C         138.2329  137.8532  166.1883 C.3     1  UNL1        0.0521
     10 C         138.4793  138.8331  165.0797 C.ar    1  UNL1        0.0593
     11 C         139.2436  138.4096  163.8604 C.ar    1  UNL1        0.0147
     12 C         139.4899  139.3896  162.7518 C.ar    1  UNL1        0.0028
     13 C         138.9721  140.7931  162.8625 C.ar    1  UNL1        0.0206
     14 C         139.2185  141.7730  161.7538 C.ar    1  UNL1        0.0374
     15 C         138.7007  143.1764  161.8646 C.ar    1  UNL1        0.0031
     16 C         137.9364  143.5999  163.0838 C.ar    1  UNL1        0.0016
     17 C         137.6900  142.6200  164.1924 C.ar    1  UNL1        0.0191
     18 C         138.2079  141.2165  164.0817 C.ar    1  UNL1        0.0810
     19 N         137.9614  140.2366  165.1904 N.ar    1  UNL1       -0.2497
     20 C         143.6758  143.1737  158.1151 C.3     1  UNL1        0.0294
     21 C         144.4955  142.5263  159.1916 C.3     1  UNL1        0.0730
     22 N         143.8863  142.2497  160.5341 N.3     1  UNL1       -0.2720
     23 C         143.1842  143.4067  161.1810 C.3     1  UNL1        0.0768
     24 C         142.4821  143.4523  162.5058 C.3     1  UNL1        0.0434
     25 C         142.3087  142.3524  163.5108 C.ar    1  UNL1       -0.0230
     26 C         141.5381  142.8215  164.7092 C.ar    1  UNL1        0.0178
     27 C         141.2535  141.8733  165.8361 C.ar    1  UNL1        0.1182
     28 N         140.5240  142.0482  167.1350 N.ar    1  UNL1       -0.2121
     29 C         140.5590  140.7389  167.8662 C.ar    1  UNL1        0.2052
     30 O         141.3101  139.7550  167.0192 O.2     1  UNL1       -0.4384
     31 C         141.7394  140.4560  165.7646 C.ar    1  UNL1        0.1640
     32 C         142.5099  139.9869  164.5661 C.ar    1  UNL1        0.0346
     33 C         142.7946  140.9351  163.4393 C.ar    1  UNL1       -0.0216
     34 C         143.5739  140.2677  162.3451 C.3     1  UNL1        0.0434
     35 C         144.0597  140.8528  161.0521 C.3     1  UNL1        0.0768
     36 C         139.9497  140.4624  169.2087 C.3     1  UNL1        0.0766
     37 C         138.7377  140.3213  170.0811 C.3     1  UNL1        0.0097
     38 C         140.1066  140.1245  170.6617 C.3     1  UNL1        0.0097
@<TRIPOS>BOND
     1     9    10    1
     2    10    11   ar
     3    11    12   ar
     4    12    13   ar
     5    13    14   ar
     6    14     3    1
     7     3     4   ar
     8     4     5   ar
     9     5     6   ar
    10     6     2    1
    11     2     1    1
    12     1    20    1
    13    20    21    1
    14    21    22    1
    15    22    23    1
    16    23    24    1
    17    24    25    1
    18    25    26   ar
    19    26    27   ar
    20    27    28   ar
    21    28    29   ar
    22    29    36    1
    23    36    37    1
    24    37    38    1
    25    29    30   ar
    26    30    31   ar
    27    31    32   ar
    28    32    33   ar
    29    33    34    1
    30    34    35    1
    31     6     7   ar
    32     7     8    1
    33    14    15   ar
    34    15    16   ar
    35    16    17   ar
    36    17    18   ar
    37    18    19   ar
    38    19    10   ar
    39    18    13   ar
    40     7     3   ar
    41    35    22    1
    42    33    25   ar
    43    31    27   ar
    44    38    36    1
@<TRIPOS>MOLECULE
*****
 38 44 0 0 0
SMALL
GASTEIGER

@<TRIPOS>ATOM
      1 C         141.4551  139.4650  156.4336 C.3     1  UNL1        0.0666
      2 S         140.6857  140.6913  156.8263 S.3     1  UNL1       -0.0756
      3 C         138.6378  141.0336  160.1057 C.ar    1  UNL1        0.1669
      4 N         137.7979  140.0544  159.3403 N.ar    1  UNL1       -0.1282
      5 N         138.4629  139.8070  158.0188 N.ar    1  UNL1       -0.1221
      6 C         139.7137  140.6333  157.9673 C.ar    1  UNL1        0.1932
      7 N         139.8217  141.3914  159.2571 N.ar    1  UNL1       -0.2884
      8 C         140.9209  142.3407  159.6324 C.3     1  UNL1        0.1340
      9 C         138.3637  137.8478  166.1906 C.3     1  UNL1        0.0521
     10 C         138.3590  138.7764  165.0126 C.ar    1  UNL1        0.0593
     11 C         138.6518  138.2478  163.6397 C.ar    1  UNL1        0.0147
     12 C         138.6471  139.1764  162.4617 C.ar    1  UNL1        0.0028
     13 C         138.3497  140.6337  162.6566 C.ar    1  UNL1        0.0206
     14 C         138.3451  141.5623  161.4785 C.ar    1  UNL1        0.0374
     15 C         138.0476  143.0195  161.6735 C.ar    1  UNL1        0.0031
     16 C         137.7549  143.5481  163.0464 C.ar    1  UNL1        0.0016
     17 C         137.7596  142.6196  164.2243 C.ar    1  UNL1        0.0191
     18 C         138.0570  141.1623  164.0295 C.ar    1  UNL1        0.0810
     19 N         138.0616  140.2337  165.2075 N.ar    1  UNL1       -0.2497
     20 C         142.7891  139.1842  157.0595 C.3     1  UNL1        0.0294
     21 C         142.8892  138.2383  158.2193 C.3     1  UNL1        0.0730
     22 N         142.9080  138.7704  159.6216 N.3     1  UNL1       -0.2720
     23 C         143.6848  140.0373  159.8265 C.3     1  UNL1        0.0768
     24 C         143.8930  140.8120  161.0941 C.3     1  UNL1        0.0434
     25 C         143.3760  140.5112  162.4695 C.ar    1  UNL1       -0.0230
     26 C         143.8189  141.5469  163.4601 C.ar    1  UNL1        0.0178
     27 C         143.4088  141.4330  164.8984 C.ar    1  UNL1        0.1182
     28 N         143.6904  142.2943  166.0937 N.ar    1  UNL1       -0.2121
     29 C         143.0115  141.6770  167.2803 C.ar    1  UNL1        0.2052
     30 O         142.3103  140.4341  166.8183 O.2     1  UNL1       -0.4384
     31 C         142.5559  140.2832  165.3463 C.ar    1  UNL1        0.1640
     32 C         142.1130  139.2474  164.3558 C.ar    1  UNL1        0.0346
     33 C         142.5231  139.3614  162.9174 C.ar    1  UNL1       -0.0216
     34 C         141.9765  138.2285  162.1003 C.3     1  UNL1        0.0434
     35 C         142.1479  137.9655  160.6335 C.3     1  UNL1        0.0768
     36 C         143.0304  142.2092  168.6825 C.3     1  UNL1        0.0766
     37 C         143.7925  142.5923  169.9164 C.3     1  UNL1        0.0097
     38 C         142.3011  142.7479  169.8775 C.3     1  UNL1        0.0097
@<TRIPOS>BOND
     1     9    10    1
     2    10    11   ar
     3    11    12   ar
     4    12    13   ar
     5    13    14   ar
     6    14     3    1
     7     3     4   ar
     8     4     5   ar
     9     5     6   ar
    10     6     2    1
    11     2     1    1
    12     1    20    1
    13    20    21    1
    14    21    22    1
    15    22    23    1
    16    23    24    1
    17    24    25    1
    18    25    26   ar
    19    26    27   ar
    20    27    28   ar
    21    28    29   ar
    22    29    36    1
    23    36    37    1
    24    37    38    1
    25    29    30   ar
    26    30    31   ar
    27    31    32   ar
    28    32    33   ar
    29    33    34    1
    30    34    35    1
    31     6     7   ar
    32     7     8    1
    33    14    15   ar
    34    15    16   ar
    35    16    17   ar
    36    17    18   ar
    37    18    19   ar
    38    19    10   ar
    39    18    13   ar
    40     7     3   ar
    41    35    22    1
    42    33    25   ar
    43    31    27   ar
    44    38    36    1
@<TRIPOS>MOLECULE
*****
 38 44 0 0 0
SMALL
GASTEIGER

@<TRIPOS>ATOM
      1 C         141.1246  143.4578  156.5748 C.3     1  UNL1        0.0666
      2 S         139.7968  143.6892  157.2331 S.3     1  UNL1       -0.0756
      3 C         139.3429  142.7963  160.9831 C.ar    1  UNL1        0.1669
      4 N         138.8134  141.5572  160.3239 N.ar    1  UNL1       -0.1282
      5 N         138.9189  141.7410  158.8389 N.ar    1  UNL1       -0.1221
      6 C         139.5137  143.0935  158.5803 C.ar    1  UNL1        0.1932
      7 N         139.7757  143.7457  159.9054 N.ar    1  UNL1       -0.2884
      8 C         140.3669  145.1082  160.1160 C.3     1  UNL1        0.1340
      9 C         138.1598  138.6211  166.3140 C.3     1  UNL1        0.0521
     10 C         138.4762  139.7264  165.3505 C.ar    1  UNL1        0.0593
     11 C         138.3939  139.4801  163.8732 C.ar    1  UNL1        0.0147
     12 C         138.7103  140.5855  162.9098 C.ar    1  UNL1        0.0028
     13 C         139.1088  141.9372  163.4238 C.ar    1  UNL1        0.0206
     14 C         139.4252  143.0426  162.4603 C.ar    1  UNL1        0.0374
     15 C         139.8237  144.3941  162.9744 C.ar    1  UNL1        0.0031
     16 C         139.9060  144.6404  164.4517 C.ar    1  UNL1        0.0016
     17 C         139.5897  143.5352  165.4151 C.ar    1  UNL1        0.0191
     18 C         139.1911  142.1835  164.9011 C.ar    1  UNL1        0.0810
     19 N         138.8748  141.0781  165.8646 N.ar    1  UNL1       -0.2497
     20 C         142.3925  143.6842  157.3438 C.3     1  UNL1        0.0294
     21 C         143.1541  142.5155  157.8951 C.3     1  UNL1        0.0730
     22 N         143.0022  142.1345  159.3380 N.3     1  UNL1       -0.2720
     23 C         142.5295  140.7343  159.5950 C.3     1  UNL1        0.0768
     24 C         142.2810  140.0578  160.9107 C.3     1  UNL1        0.0434
     25 C         142.4437  140.6145  162.2939 C.ar    1  UNL1       -0.0230
     26 C         142.0864  139.5992  163.3387 C.ar    1  UNL1        0.0178
     27 C         142.1806  139.9545  164.7930 C.ar    1  UNL1        0.1182
     28 N         141.8966  139.1687  166.0387 N.ar    1  UNL1       -0.2121
     29 C         142.1726  140.0536  167.2180 C.ar    1  UNL1        0.2052
     30 O         142.6271  141.3863  166.7012 O.2     1  UNL1       -0.4384
     31 C         142.6320  141.3251  165.2025 C.ar    1  UNL1        0.1640
     32 C         142.9893  142.3404  164.1577 C.ar    1  UNL1        0.0346
     33 C         142.8952  141.9851  162.7034 C.ar    1  UNL1       -0.0216
     34 C         143.2954  143.1375  161.8307 C.3     1  UNL1        0.0434
     35 C         143.3430  143.2040  160.3329 C.3     1  UNL1        0.0768
     36 C         142.0207  139.6725  168.6608 C.3     1  UNL1        0.0766
     37 C         141.2030  139.6452  169.9181 C.3     1  UNL1        0.0097
     38 C         142.5753  139.0397  169.9026 C.3     1  UNL1        0.0097
@<TRIPOS>BOND
     1     9    10    1
     2    10    11   ar
     3    11    12   ar
     4    12    13   ar
     5    13    14   ar
     6    14     3    1
     7     3     4   ar
     8     4     5   ar
     9     5     6   ar
    10     6     2    1
    11     2     1    1
    12     1    20    1
    13    20    21    1
    14    21    22    1
    15    22    23    1
    16    23    24    1
    17    24    25    1
    18    25    26   ar
    19    26    27   ar
    20    27    28   ar
    21    28    29   ar
    22    29    36    1
    23    36    37    1
    24    37    38    1
    25    29    30   ar
    26    30    31   ar
    27    31    32   ar
    28    32    33   ar
    29    33    34    1
    30    34    35    1
    31     6     7   ar
    32     7     8    1
    33    14    15   ar
    34    15    16   ar
    35    16    17   ar
    36    17    18   ar
    37    18    19   ar
    38    19    10   ar
    39    18    13   ar
    40     7     3   ar
    41    35    22    1
    42    33    25   ar
    43    31    27   ar
    44    38    36    1
@<TRIPOS>MOLECULE
*****
 38 44 0 0 0
SMALL
GASTEIGER

@<TRIPOS>ATOM
      1 C         140.4160  143.6751  157.6242 C.3     1  UNL1        0.0666
      2 S         139.7515  142.4038  158.0624 S.3     1  UNL1       -0.0756
      3 C         140.2946  140.7919  161.5513 C.ar    1  UNL1        0.1669
      4 N         141.5864  140.4501  160.8698 N.ar    1  UNL1       -0.1282
      5 N         141.5401  141.0123  159.4799 N.ar    1  UNL1       -0.1221
      6 C         140.2198  141.7016  159.3024 C.ar    1  UNL1        0.1932
      7 N         139.4500  141.5654  160.5826 N.ar    1  UNL1       -0.2884
      8 C         138.0767  142.1075  160.8475 C.3     1  UNL1        0.1340
      9 C         143.9736  137.9459  166.6124 C.3     1  UNL1        0.0521
     10 C         142.9588  138.5656  165.6980 C.ar    1  UNL1        0.0593
     11 C         143.3392  138.9328  164.2943 C.ar    1  UNL1        0.0147
     12 C         142.3243  139.5525  163.3800 C.ar    1  UNL1        0.0028
     13 C         140.9291  139.8051  163.8693 C.ar    1  UNL1        0.0206
     14 C         139.9142  140.4248  162.9550 C.ar    1  UNL1        0.0374
     15 C         138.5190  140.6774  163.4445 C.ar    1  UNL1        0.0031
     16 C         138.1386  140.3102  164.8482 C.ar    1  UNL1        0.0016
     17 C         139.1534  139.6905  165.7625 C.ar    1  UNL1        0.0191
     18 C         140.5487  139.4379  165.2731 C.ar    1  UNL1        0.0810
     19 N         141.5635  138.8182  166.1875 N.ar    1  UNL1       -0.2497
     20 C         140.1386  144.9563  158.3534 C.3     1  UNL1        0.0294
     21 C         141.1474  145.5029  159.3195 C.3     1  UNL1        0.0730
     22 N         141.2443  144.9348  160.7044 N.3     1  UNL1       -0.2720
     23 C         142.5639  144.3190  161.0643 C.3     1  UNL1        0.0768
     24 C         142.9739  143.6738  162.3550 C.3     1  UNL1        0.0434
     25 C         142.1656  143.4851  163.6043 C.ar    1  UNL1       -0.0230
     26 C         142.9585  142.7881  164.6700 C.ar    1  UNL1        0.0178
     27 C         142.3334  142.5010  166.0030 C.ar    1  UNL1        0.1182
     28 N         142.8637  141.8340  167.2374 N.ar    1  UNL1       -0.2121
     29 C         141.7735  141.8315  168.2677 C.ar    1  UNL1        0.2052
     30 O         140.5695  142.4970  167.6700 O.2     1  UNL1       -0.4384
     31 C         140.9155  142.9108  166.2704 C.ar    1  UNL1        0.1640
     32 C         140.1226  143.6078  165.2047 C.ar    1  UNL1        0.0346
     33 C         140.7476  143.8949  163.8718 C.ar    1  UNL1       -0.0216
     34 C         139.7878  144.5947  162.9557 C.3     1  UNL1        0.0434
     35 C         140.0089  145.0574  161.5461 C.3     1  UNL1        0.0768
     36 C         141.8705  141.2633  169.6525 C.3     1  UNL1        0.0766
     37 C         142.1575  140.1085  170.5657 C.3     1  UNL1        0.0097
     38 C         141.7513  141.4341  171.1380 C.3     1  UNL1        0.0097
@<TRIPOS>BOND
     1     9    10    1
     2    10    11   ar
     3    11    12   ar
     4    12    13   ar
     5    13    14   ar
     6    14     3    1
     7     3     4   ar
     8     4     5   ar
     9     5     6   ar
    10     6     2    1
    11     2     1    1
    12     1    20    1
    13    20    21    1
    14    21    22    1
    15    22    23    1
    16    23    24    1
    17    24    25    1
    18    25    26   ar
    19    26    27   ar
    20    27    28   ar
    21    28    29   ar
    22    29    36    1
    23    36    37    1
    24    37    38    1
    25    29    30   ar
    26    30    31   ar
    27    31    32   ar
    28    32    33   ar
    29    33    34    1
    30    34    35    1
    31     6     7   ar
    32     7     8    1
    33    14    15   ar
    34    15    16   ar
    35    16    17   ar
    36    17    18   ar
    37    18    19   ar
    38    19    10   ar
    39    18    13   ar
    40     7     3   ar
    41    35    22    1
    42    33    25   ar
    43    31    27   ar
    44    38    36    1
