@<TRIPOS>MOLECULE
*****
 34 37 0 0 0
SMALL
GASTEIGER

@<TRIPOS>ATOM
      1 N         138.9746  140.1033  165.6939 N.3     1  UNL1       -0.2691
      2 C         140.3145  140.6076  166.1414 C.3     1  UNL1        0.0724
      3 C         140.7698  141.9807  165.7447 C.3     1  UNL1        0.0188
      4 C         139.8852  142.8495  164.9006 C.3     1  UNL1        0.0188
      5 C         138.5452  142.3452  164.4531 C.3     1  UNL1        0.0188
      6 C         138.0899  140.9721  164.8497 C.3     1  UNL1        0.0724
      7 C         138.5193  138.7302  166.0906 C.3     1  UNL1        0.0987
      8 C         137.7532  138.5331  167.3651 C.2     1  UNL1        0.0652
      9 O         136.5663  137.6163  167.3926 O.co2   1  UNL1       -0.5478
     10 O         138.1741  139.2527  168.6121 O.co2   1  UNL1       -0.5478
     11 C         138.8300  137.5543  165.2128 C.3     1  UNL1        0.0480
     12 C         143.0853  138.0550  162.2730 C.3     1  UNL1        0.0310
     13 C         141.5911  138.0178  162.4000 C.ar    1  UNL1       -0.0222
     14 C         140.7305  138.1937  161.1842 C.ar    1  UNL1       -0.0043
     15 C         139.2363  138.1564  161.3112 C.ar    1  UNL1       -0.0006
     16 C         138.6028  137.9433  162.6540 C.ar    1  UNL1       -0.0042
     17 C         139.4635  137.7674  163.8698 C.ar    1  UNL1       -0.0208
     18 C         140.9576  137.8046  163.7428 C.ar    1  UNL1       -0.0085
     19 C         140.3404  144.2226  164.5039 C.3     1  UNL1        0.0721
     20 N         140.6642  144.5203  163.0699 N.3     1  UNL1       -0.2724
     21 C         139.8597  145.5364  162.3147 C.3     1  UNL1        0.0758
     22 C         140.1834  145.8341  160.8807 C.3     1  UNL1        0.0609
     23 C         141.3117  145.1157  160.2018 C.3     1  UNL1        0.1687
     24 C         142.1163  144.0997  160.9569 C.3     1  UNL1        0.0609
     25 C         141.7925  143.8019  162.3910 C.3     1  UNL1        0.0758
     26 O         141.6355  145.4134  158.7677 O.3     1  UNL1       -0.4790
     27 C         140.5792  145.2625  157.7134 C.ar    1  UNL1        0.1393
     28 C         139.9428  143.9252  157.4755 C.ar    1  UNL1        0.0378
     29 C         138.8865  143.7743  156.4212 C.ar    1  UNL1        0.0154
     30 C         138.4667  144.9606  155.6048 C.ar    1  UNL1        0.0684
     31 CL        137.4105  144.8096  154.5505 Cl      1  UNL1       -0.0814
     32 C         139.1032  146.2979  155.8427 C.ar    1  UNL1        0.0712
     33 CL        138.6834  147.4842  155.0264 Cl      1  UNL1       -0.0813
     34 C         140.1595  146.4488  156.8971 C.ar    1  UNL1        0.0491
@<TRIPOS>UNITY_ATOM_ATTR
9 1
charge -1
@<TRIPOS>BOND
     1    12    13    1
     2    13    14   ar
     3    14    15   ar
     4    15    16   ar
     5    16    17   ar
     6    17    11    1
     7     7    11    1
     8     7     8    1
     9     8     9   ar
    10     8    10   ar
    11     7     1    1
    12     1     2    1
    13     2     3    1
    14     3     4    1
    15     4    19    1
    16    19    20    1
    17    20    21    1
    18    21    22    1
    19    22    23    1
    20    23    26    1
    21    26    27    1
    22    27    28   ar
    23    28    29   ar
    24    29    30   ar
    25    30    31    1
    26    30    32   ar
    27    32    33    1
    28    32    34   ar
    29    23    24    1
    30    24    25    1
    31     4     5    1
    32     5     6    1
    33    17    18   ar
    34    18    13   ar
    35     6     1    1
    36    25    20    1
    37    34    27   ar
@<TRIPOS>MOLECULE
*****
 34 37 0 0 0
SMALL
GASTEIGER

@<TRIPOS>ATOM
      1 N         139.6861  141.1547  166.8711 N.3     1  UNL1       -0.2691
      2 C         138.8913  140.3278  165.9045 C.3     1  UNL1        0.0724
      3 C         138.3179  140.9602  164.6711 C.3     1  UNL1        0.0188
      4 C         138.5392  142.4195  164.4043 C.3     1  UNL1        0.0188
      5 C         139.3340  143.2466  165.3710 C.3     1  UNL1        0.0188
      6 C         139.9075  142.6142  166.6044 C.3     1  UNL1        0.0724
      7 C         140.2595  140.5223  168.1045 C.3     1  UNL1        0.0987
      8 C         139.4062  140.3531  169.3266 C.2     1  UNL1        0.0652
      9 O         139.7613  141.0715  170.5945 O.co2   1  UNL1       -0.5478
     10 O         138.1979  139.4655  169.2806 O.co2   1  UNL1       -0.5478
     11 C         141.6861  140.0591  168.1159 C.3     1  UNL1        0.0480
     12 C         144.5627  142.5680  164.5901 C.3     1  UNL1        0.0310
     13 C         143.9202  141.3048  165.0816 C.ar    1  UNL1       -0.0222
     14 C         144.0736  140.0328  164.3016 C.ar    1  UNL1       -0.0043
     15 C         143.4312  138.7695  164.7930 C.ar    1  UNL1       -0.0006
     16 C         142.6354  138.7783  166.0644 C.ar    1  UNL1       -0.0042
     17 C         142.4820  140.0503  166.8444 C.ar    1  UNL1       -0.0208
     18 C         143.1244  141.3135  166.3530 C.ar    1  UNL1       -0.0085
     19 C         137.9658  143.0519  163.1709 C.3     1  UNL1        0.0721
     20 N         138.8692  143.7430  162.1931 N.3     1  UNL1       -0.2724
     21 C         139.3763  143.0051  160.9896 C.3     1  UNL1        0.0758
     22 C         140.2798  143.6962  160.0118 C.3     1  UNL1        0.0609
     23 C         140.6762  145.1252  160.2375 C.3     1  UNL1        0.1687
     24 C         140.1691  145.8631  161.4409 C.3     1  UNL1        0.0609
     25 C         139.2656  145.1720  162.4188 C.3     1  UNL1        0.0758
     26 O         141.5796  145.8163  159.2597 O.3     1  UNL1       -0.4790
     27 C         141.3129  145.7097  157.7874 C.ar    1  UNL1        0.1393
     28 C         142.2831  144.9879  156.8998 C.ar    1  UNL1        0.0378
     29 C         142.0164  144.8813  155.4276 C.ar    1  UNL1        0.0154
     30 C         140.7796  145.4965  154.8428 C.ar    1  UNL1        0.0684
     31 CL        140.5130  145.3900  153.3706 Cl      1  UNL1       -0.0814
     32 C         139.8095  146.2184  155.7304 C.ar    1  UNL1        0.0712
     33 CL        138.5727  146.8336  155.1458 Cl      1  UNL1       -0.0813
     34 C         140.0762  146.3250  157.2027 C.ar    1  UNL1        0.0491
@<TRIPOS>UNITY_ATOM_ATTR
9 1
charge -1
@<TRIPOS>BOND
     1    12    13    1
     2    13    14   ar
     3    14    15   ar
     4    15    16   ar
     5    16    17   ar
     6    17    11    1
     7     7    11    1
     8     7     8    1
     9     8     9   ar
    10     8    10   ar
    11     7     1    1
    12     1     2    1
    13     2     3    1
    14     3     4    1
    15     4    19    1
    16    19    20    1
    17    20    21    1
    18    21    22    1
    19    22    23    1
    20    23    26    1
    21    26    27    1
    22    27    28   ar
    23    28    29   ar
    24    29    30   ar
    25    30    31    1
    26    30    32   ar
    27    32    33    1
    28    32    34   ar
    29    23    24    1
    30    24    25    1
    31     4     5    1
    32     5     6    1
    33    17    18   ar
    34    18    13   ar
    35     6     1    1
    36    25    20    1
    37    34    27   ar
@<TRIPOS>MOLECULE
*****
 34 37 0 0 0
SMALL
GASTEIGER

@<TRIPOS>ATOM
      1 N         141.6100  140.0388  166.8042 N.3     1  UNL1       -0.2691
      2 C         141.8095  141.2977  166.0136 C.3     1  UNL1        0.0724
      3 C         142.9385  141.3952  165.0308 C.3     1  UNL1        0.0188
      4 C         143.8679  140.2337  164.8386 C.3     1  UNL1        0.0188
      5 C         143.6684  138.9746  165.6293 C.3     1  UNL1        0.0188
      6 C         142.5394  138.8772  166.6121 C.3     1  UNL1        0.0724
      7 C         140.4810  139.9413  167.7871 C.3     1  UNL1        0.0987
      8 C         140.7264  140.2171  169.2410 C.2     1  UNL1        0.0652
      9 O         139.7944  139.6626  170.2772 O.co2   1  UNL1       -0.5478
     10 O         141.9038  141.0473  169.6586 O.co2   1  UNL1       -0.5478
     11 C         139.1067  139.5682  167.3160 C.3     1  UNL1        0.0480
     12 C         137.4851  141.3807  162.7241 C.3     1  UNL1        0.0310
     13 C         138.0360  140.2622  163.5581 C.ar    1  UNL1       -0.0222
     14 C         138.3271  138.9315  162.9300 C.ar    1  UNL1       -0.0043
     15 C         138.8780  137.8130  163.7640 C.ar    1  UNL1       -0.0006
     16 C         139.1379  138.0252  165.2259 C.ar    1  UNL1       -0.0042
     17 C         138.8468  139.3559  165.8540 C.ar    1  UNL1       -0.0208
     18 C         138.2959  140.4744  165.0200 C.ar    1  UNL1       -0.0085
     19 C         144.9969  140.3311  163.8558 C.3     1  UNL1        0.0721
     20 N         144.7243  140.7393  162.4384 N.3     1  UNL1       -0.2724
     21 C         144.1818  139.7390  161.4610 C.3     1  UNL1        0.0758
     22 C         143.9091  140.1471  160.0436 C.3     1  UNL1        0.0609
     23 C         144.1790  141.5555  159.6036 C.3     1  UNL1        0.1687
     24 C         144.7215  142.5558  160.5809 C.3     1  UNL1        0.0609
     25 C         144.9941  142.1476  161.9984 C.3     1  UNL1        0.0758
     26 O         143.9064  141.9637  158.1862 O.3     1  UNL1       -0.4790
     27 C         145.0023  141.9019  157.1638 C.ar    1  UNL1        0.1393
     28 C         146.3094  142.5907  157.4230 C.ar    1  UNL1        0.0378
     29 C         147.4053  142.5289  156.4007 C.ar    1  UNL1        0.0154
     30 C         147.1943  141.7783  155.1192 C.ar    1  UNL1        0.0684
     31 CL        148.2902  141.7165  154.0970 Cl      1  UNL1       -0.0814
     32 C         145.8872  141.0895  154.8601 C.ar    1  UNL1        0.0712
     33 CL        145.6761  140.3389  153.5787 Cl      1  UNL1       -0.0813
     34 C         144.7912  141.1513  155.8824 C.ar    1  UNL1        0.0491
@<TRIPOS>UNITY_ATOM_ATTR
9 1
charge -1
@<TRIPOS>BOND
     1    12    13    1
     2    13    14   ar
     3    14    15   ar
     4    15    16   ar
     5    16    17   ar
     6    17    11    1
     7     7    11    1
     8     7     8    1
     9     8     9   ar
    10     8    10   ar
    11     7     1    1
    12     1     2    1
    13     2     3    1
    14     3     4    1
    15     4    19    1
    16    19    20    1
    17    20    21    1
    18    21    22    1
    19    22    23    1
    20    23    26    1
    21    26    27    1
    22    27    28   ar
    23    28    29   ar
    24    29    30   ar
    25    30    31    1
    26    30    32   ar
    27    32    33    1
    28    32    34   ar
    29    23    24    1
    30    24    25    1
    31     4     5    1
    32     5     6    1
    33    17    18   ar
    34    18    13   ar
    35     6     1    1
    36    25    20    1
    37    34    27   ar
@<TRIPOS>MOLECULE
*****
 34 37 0 0 0
SMALL
GASTEIGER

@<TRIPOS>ATOM
      1 N         140.8959  139.5730  166.8386 N.3     1  UNL1       -0.2691
      2 C         139.4095  139.5161  166.6459 C.3     1  UNL1        0.0724
      3 C         138.8347  138.8225  165.4465 C.3     1  UNL1        0.0188
      4 C         139.7463  138.1858  164.4398 C.3     1  UNL1        0.0188
      5 C         141.2329  138.2428  164.6324 C.3     1  UNL1        0.0188
      6 C         141.8077  138.9364  165.8318 C.3     1  UNL1        0.0724
      7 C         141.4707  140.2666  168.0380 C.3     1  UNL1        0.0987
      8 C         141.5955  139.5330  169.3404 C.2     1  UNL1        0.0652
      9 O         142.8763  138.8336  169.6876 O.co2   1  UNL1       -0.5478
     10 O         140.4395  139.4987  170.2956 O.co2   1  UNL1       -0.5478
     11 C         141.9208  141.6938  167.9350 C.3     1  UNL1        0.0480
     12 C         138.6131  144.4965  165.0707 C.3     1  UNL1        0.0310
     13 C         139.9702  143.8876  165.2643 C.ar    1  UNL1       -0.0222
     14 C         141.0305  144.0711  164.2194 C.ar    1  UNL1       -0.0043
     15 C         142.3877  143.4622  164.4130 C.ar    1  UNL1       -0.0006
     16 C         142.6844  142.6698  165.6515 C.ar    1  UNL1       -0.0042
     17 C         141.6241  142.4862  166.6964 C.ar    1  UNL1       -0.0208
     18 C         140.2669  143.0951  166.5028 C.ar    1  UNL1       -0.0085
     19 C         139.1715  137.4923  163.2404 C.3     1  UNL1        0.0721
     20 N         138.9721  138.2487  161.9606 N.3     1  UNL1       -0.2724
     21 C         137.7036  139.0163  161.7329 C.3     1  UNL1        0.0758
     22 C         137.5041  139.7727  160.4531 C.3     1  UNL1        0.0609
     23 C         138.5731  139.7616  159.4009 C.3     1  UNL1        0.1687
     24 C         139.8415  138.9940  159.6285 C.3     1  UNL1        0.0609
     25 C         140.0410  138.2375  160.9084 C.3     1  UNL1        0.0758
     26 O         138.3736  140.5180  158.1211 O.3     1  UNL1       -0.4790
     27 C         138.9064  141.9135  157.9838 C.ar    1  UNL1        0.1393
     28 C         138.8694  142.6028  156.6521 C.ar    1  UNL1        0.0378
     29 C         139.4021  143.9983  156.5147 C.ar    1  UNL1        0.0154
     30 C         139.9719  144.7045  157.7092 C.ar    1  UNL1        0.0684
     31 CL        140.5046  146.0999  157.5719 Cl      1  UNL1       -0.0814
     32 C         140.0089  144.0152  159.0409 C.ar    1  UNL1        0.0712
     33 CL        140.5786  144.7214  160.2354 Cl      1  UNL1       -0.0813
     34 C         139.4761  142.6197  159.1782 C.ar    1  UNL1        0.0491
@<TRIPOS>UNITY_ATOM_ATTR
9 1
charge -1
@<TRIPOS>BOND
     1    12    13    1
     2    13    14   ar
     3    14    15   ar
     4    15    16   ar
     5    16    17   ar
     6    17    11    1
     7     7    11    1
     8     7     8    1
     9     8     9   ar
    10     8    10   ar
    11     7     1    1
    12     1     2    1
    13     2     3    1
    14     3     4    1
    15     4    19    1
    16    19    20    1
    17    20    21    1
    18    21    22    1
    19    22    23    1
    20    23    26    1
    21    26    27    1
    22    27    28   ar
    23    28    29   ar
    24    29    30   ar
    25    30    31    1
    26    30    32   ar
    27    32    33    1
    28    32    34   ar
    29    23    24    1
    30    24    25    1
    31     4     5    1
    32     5     6    1
    33    17    18   ar
    34    18    13   ar
    35     6     1    1
    36    25    20    1
    37    34    27   ar
@<TRIPOS>MOLECULE
*****
 34 37 0 0 0
SMALL
GASTEIGER

@<TRIPOS>ATOM
      1 N         140.7560  140.5100  167.2974 N.3     1  UNL1       -0.2691
      2 C         140.8070  141.9515  166.8859 C.3     1  UNL1        0.0724
      3 C         141.9695  142.4629  166.0879 C.3     1  UNL1        0.0188
      4 C         143.0811  141.5329  165.7014 C.3     1  UNL1        0.0188
      5 C         143.0301  140.0913  166.1129 C.3     1  UNL1        0.0188
      6 C         141.8675  139.5798  166.9110 C.3     1  UNL1        0.0724
      7 C         139.5934  139.9985  168.0955 C.3     1  UNL1        0.0987
      8 C         139.5382  140.2342  169.5758 C.2     1  UNL1        0.0652
      9 O         138.2796  139.9374  170.3361 O.co2   1  UNL1       -0.5478
     10 O         140.7415  140.7666  170.2959 O.co2   1  UNL1       -0.5478
     11 C         138.4860  139.2514  167.4132 C.3     1  UNL1        0.0480
     12 C         137.4886  141.3172  162.7508 C.3     1  UNL1        0.0310
     13 C         137.9708  140.1687  163.5865 C.ar    1  UNL1       -0.0222
     14 C         138.4365  138.9047  162.9268 C.ar    1  UNL1       -0.0043
     15 C         138.9187  137.7562  163.7625 C.ar    1  UNL1       -0.0006
     16 C         138.9352  137.8717  165.2579 C.ar    1  UNL1       -0.0042
     17 C         138.4695  139.1358  165.9177 C.ar    1  UNL1       -0.0208
     18 C         137.9873  140.2843  165.0820 C.ar    1  UNL1       -0.0085
     19 C         144.2437  142.0444  164.9034 C.3     1  UNL1        0.0721
     20 N         144.0820  142.3267  163.4391 N.3     1  UNL1       -0.2724
     21 C         143.4546  143.6123  162.9880 C.3     1  UNL1        0.0758
     22 C         143.2929  143.8947  161.5237 C.3     1  UNL1        0.0609
     23 C         143.7588  142.8914  160.5105 C.3     1  UNL1        0.1687
     24 C         144.3862  141.6059  160.9616 C.3     1  UNL1        0.0609
     25 C         144.5479  141.3235  162.4260 C.3     1  UNL1        0.0758
     26 O         143.5971  143.1738  159.0463 O.3     1  UNL1       -0.4790
     27 C         143.9922  142.1389  158.0348 C.ar    1  UNL1        0.1393
     28 C         143.0764  140.9872  157.7432 C.ar    1  UNL1        0.0378
     29 C         143.4714  139.9523  156.7318 C.ar    1  UNL1        0.0154
     30 C         144.7822  140.0691  156.0119 C.ar    1  UNL1        0.0684
     31 CL        145.1772  139.0343  155.0005 Cl      1  UNL1       -0.0814
     32 C         145.6980  141.2208  156.3035 C.ar    1  UNL1        0.0712
     33 CL        147.0088  141.3376  155.5836 Cl      1  UNL1       -0.0813
     34 C         145.3029  142.2557  157.3150 C.ar    1  UNL1        0.0491
@<TRIPOS>UNITY_ATOM_ATTR
9 1
charge -1
@<TRIPOS>BOND
     1    12    13    1
     2    13    14   ar
     3    14    15   ar
     4    15    16   ar
     5    16    17   ar
     6    17    11    1
     7     7    11    1
     8     7     8    1
     9     8     9   ar
    10     8    10   ar
    11     7     1    1
    12     1     2    1
    13     2     3    1
    14     3     4    1
    15     4    19    1
    16    19    20    1
    17    20    21    1
    18    21    22    1
    19    22    23    1
    20    23    26    1
    21    26    27    1
    22    27    28   ar
    23    28    29   ar
    24    29    30   ar
    25    30    31    1
    26    30    32   ar
    27    32    33    1
    28    32    34   ar
    29    23    24    1
    30    24    25    1
    31     4     5    1
    32     5     6    1
    33    17    18   ar
    34    18    13   ar
    35     6     1    1
    36    25    20    1
    37    34    27   ar
@<TRIPOS>MOLECULE
*****
 34 37 0 0 0
SMALL
GASTEIGER

@<TRIPOS>ATOM
      1 N         140.3285  140.6559  167.7269 N.3     1  UNL1       -0.2691
      2 C         140.2367  142.0555  167.1953 C.3     1  UNL1        0.0724
      3 C         141.4385  142.7014  166.5720 C.3     1  UNL1        0.0188
      4 C         142.7321  141.9477  166.4803 C.3     1  UNL1        0.0188
      5 C         142.8239  140.5480  167.0118 C.3     1  UNL1        0.0188
      6 C         141.6221  139.9021  167.6351 C.3     1  UNL1        0.0724
      7 C         139.1267  140.0100  168.3502 C.3     1  UNL1        0.0987
      8 C         138.8064  140.2579  169.7945 C.2     1  UNL1        0.0652
      9 O         137.6567  139.5437  170.4411 O.co2   1  UNL1       -0.5478
     10 O         139.6359  141.2200  170.5922 O.co2   1  UNL1       -0.5478
     11 C         138.2452  139.1162  167.5292 C.3     1  UNL1        0.0480
     12 C         137.7006  141.3584  162.8734 C.3     1  UNL1        0.0310
     13 C         138.1322  140.1909  163.7105 C.ar    1  UNL1       -0.0222
     14 C         138.7229  138.9770  163.0568 C.ar    1  UNL1       -0.0043
     15 C         139.1544  137.8095  163.8939 C.ar    1  UNL1       -0.0006
     16 C         138.9952  137.8559  165.3846 C.ar    1  UNL1       -0.0042
     17 C         138.4044  139.0698  166.0383 C.ar    1  UNL1       -0.0208
     18 C         137.9729  140.2373  165.2013 C.ar    1  UNL1       -0.0085
     19 C         143.9339  142.5936  165.8570 C.3     1  UNL1        0.0721
     20 N         144.1272  142.5410  164.3704 N.3     1  UNL1       -0.2724
     21 C         144.5552  141.2617  163.7145 C.3     1  UNL1        0.0758
     22 C         144.7486  141.2092  162.2280 C.3     1  UNL1        0.0609
     23 C         144.5140  142.4360  161.3973 C.3     1  UNL1        0.1687
     24 C         144.0860  143.7152  162.0532 C.3     1  UNL1        0.0609
     25 C         143.8926  143.7678  163.5398 C.3     1  UNL1        0.0758
     26 O         144.7073  142.3834  159.9108 O.3     1  UNL1       -0.4790
     27 C         143.5158  142.3407  159.0005 C.ar    1  UNL1        0.1393
     28 C         143.5583  143.0435  157.6760 C.ar    1  UNL1        0.0378
     29 C         142.3669  143.0009  156.7657 C.ar    1  UNL1        0.0154
     30 C         141.1329  142.2554  157.1799 C.ar    1  UNL1        0.0684
     31 CL        139.9415  142.2127  156.2696 Cl      1  UNL1       -0.0814
     32 C         141.0904  141.5526  158.5044 C.ar    1  UNL1        0.0712
     33 CL        139.8564  140.8071  158.9186 Cl      1  UNL1       -0.0813
     34 C         142.2819  141.5953  159.4147 C.ar    1  UNL1        0.0491
@<TRIPOS>UNITY_ATOM_ATTR
9 1
charge -1
@<TRIPOS>BOND
     1    12    13    1
     2    13    14   ar
     3    14    15   ar
     4    15    16   ar
     5    16    17   ar
     6    17    11    1
     7     7    11    1
     8     7     8    1
     9     8     9   ar
    10     8    10   ar
    11     7     1    1
    12     1     2    1
    13     2     3    1
    14     3     4    1
    15     4    19    1
    16    19    20    1
    17    20    21    1
    18    21    22    1
    19    22    23    1
    20    23    26    1
    21    26    27    1
    22    27    28   ar
    23    28    29   ar
    24    29    30   ar
    25    30    31    1
    26    30    32   ar
    27    32    33    1
    28    32    34   ar
    29    23    24    1
    30    24    25    1
    31     4     5    1
    32     5     6    1
    33    17    18   ar
    34    18    13   ar
    35     6     1    1
    36    25    20    1
    37    34    27   ar
@<TRIPOS>MOLECULE
*****
 34 37 0 0 0
SMALL
GASTEIGER

@<TRIPOS>ATOM
      1 N         142.1515  140.3616  159.2468 N.3     1  UNL1       -0.2691
      2 C         140.7929  140.9815  159.1060 C.3     1  UNL1        0.0724
      3 C         139.6316  140.4260  159.8759 C.3     1  UNL1        0.0188
      4 C         139.8289  139.2506  160.7867 C.3     1  UNL1        0.0188
      5 C         141.1875  138.6306  160.9275 C.3     1  UNL1        0.0188
      6 C         142.3488  139.1861  160.1575 C.3     1  UNL1        0.0724
      7 C         143.3128  140.9170  158.4768 C.3     1  UNL1        0.0987
      8 C         143.7445  140.2653  157.1966 C.2     1  UNL1        0.0652
      9 O         142.7162  139.7693  156.2236 O.co2   1  UNL1       -0.5478
     10 O         145.2044  140.1094  156.8895 O.co2   1  UNL1       -0.5478
     11 C         144.0424  142.1242  158.9870 C.3     1  UNL1        0.0480
     12 C         145.7198  141.7255  163.8888 C.3     1  UNL1        0.0310
     13 C         144.7732  142.3111  162.8833 C.ar    1  UNL1       -0.0222
     14 C         143.7187  143.2829  163.3232 C.ar    1  UNL1       -0.0043
     15 C         142.7721  143.8685  162.3178 C.ar    1  UNL1       -0.0006
     16 C         142.8799  143.4823  160.8724 C.ar    1  UNL1       -0.0042
     17 C         143.9344  142.5105  160.4325 C.ar    1  UNL1       -0.0208
     18 C         144.8811  141.9249  161.4379 C.ar    1  UNL1       -0.0085
     19 C         138.6676  138.6951  161.5566 C.3     1  UNL1        0.0721
     20 N         138.6355  138.8095  163.0519 N.3     1  UNL1       -0.2724
     21 C         138.1793  140.0846  163.6969 C.3     1  UNL1        0.0758
     22 C         138.1472  140.1990  165.1922 C.3     1  UNL1        0.0609
     23 C         138.5713  139.0383  166.0424 C.3     1  UNL1        0.1687
     24 C         139.0274  137.7633  165.3975 C.3     1  UNL1        0.0609
     25 C         139.0595  137.6488  163.9021 C.3     1  UNL1        0.0758
     26 O         138.5392  139.1527  167.5377 O.3     1  UNL1       -0.4790
     27 C         139.4840  140.0830  168.2392 C.ar    1  UNL1        0.1393
     28 C         139.2040  140.5140  169.6484 C.ar    1  UNL1        0.0378
     29 C         140.1487  141.4442  170.3499 C.ar    1  UNL1        0.0154
     30 C         141.3735  141.9434  169.6422 C.ar    1  UNL1        0.0684
     31 CL        142.3182  142.8736  170.3438 Cl      1  UNL1       -0.0814
     32 C         141.6535  141.5125  168.2330 C.ar    1  UNL1        0.0712
     33 CL        142.8781  142.0117  167.5253 Cl      1  UNL1       -0.0813
     34 C         140.7087  140.5822  167.5315 C.ar    1  UNL1        0.0491
@<TRIPOS>UNITY_ATOM_ATTR
9 1
charge -1
@<TRIPOS>BOND
     1    12    13    1
     2    13    14   ar
     3    14    15   ar
     4    15    16   ar
     5    16    17   ar
     6    17    11    1
     7     7    11    1
     8     7     8    1
     9     8     9   ar
    10     8    10   ar
    11     7     1    1
    12     1     2    1
    13     2     3    1
    14     3     4    1
    15     4    19    1
    16    19    20    1
    17    20    21    1
    18    21    22    1
    19    22    23    1
    20    23    26    1
    21    26    27    1
    22    27    28   ar
    23    28    29   ar
    24    29    30   ar
    25    30    31    1
    26    30    32   ar
    27    32    33    1
    28    32    34   ar
    29    23    24    1
    30    24    25    1
    31     4     5    1
    32     5     6    1
    33    17    18   ar
    34    18    13   ar
    35     6     1    1
    36    25    20    1
    37    34    27   ar
@<TRIPOS>MOLECULE
*****
 34 37 0 0 0
SMALL
GASTEIGER

@<TRIPOS>ATOM
      1 N         140.5181  140.8995  167.2518 N.3     1  UNL1       -0.2691
      2 C         141.8933  140.3557  167.0007 C.3     1  UNL1        0.0724
      3 C         142.8805  141.1528  166.2006 C.3     1  UNL1        0.0188
      4 C         142.4926  142.4937  165.6517 C.3     1  UNL1        0.0188
      5 C         141.1173  143.0376  165.9027 C.3     1  UNL1        0.0188
      6 C         140.1301  142.2405  166.7028 C.3     1  UNL1        0.0724
      7 C         139.5309  140.1025  168.0518 C.3     1  UNL1        0.0987
      8 C         139.5968  140.1136  169.5504 C.2     1  UNL1        0.0652
      9 O         140.6878  139.3667  170.2587 O.co2   1  UNL1       -0.5478
     10 O         138.5716  140.8717  170.3405 O.co2   1  UNL1       -0.5478
     11 C         138.4779  139.2943  167.3534 C.3     1  UNL1        0.0480
     12 C         137.5750  141.0922  162.5625 C.3     1  UNL1        0.0310
     13 C         138.0841  140.0119  163.4701 C.ar    1  UNL1       -0.0222
     14 C         138.6510  138.7502  162.8897 C.ar    1  UNL1       -0.0043
     15 C         139.1602  137.6699  163.7973 C.ar    1  UNL1       -0.0006
     16 C         139.1025  137.8512  165.2851 C.ar    1  UNL1       -0.0042
     17 C         138.5356  139.1129  165.8654 C.ar    1  UNL1       -0.0208
     18 C         138.0264  140.1932  164.9579 C.ar    1  UNL1       -0.0085
     19 C         143.4798  143.2907  164.8516 C.3     1  UNL1        0.0721
     20 N         143.6694  143.0022  163.3919 N.3     1  UNL1       -0.2724
     21 C         142.5935  143.3617  162.4104 C.3     1  UNL1        0.0758
     22 C         142.7830  143.0732  160.9507 C.3     1  UNL1        0.0609
     23 C         144.0485  142.4252  160.4724 C.3     1  UNL1        0.1687
     24 C         145.1243  142.0657  161.4539 C.3     1  UNL1        0.0609
     25 C         144.9348  142.3542  162.9137 C.3     1  UNL1        0.0758
     26 O         144.2381  142.1366  159.0128 O.3     1  UNL1       -0.4790
     27 C         143.7761  140.8293  158.4404 C.ar    1  UNL1        0.1393
     28 C         143.3112  139.7335  159.3532 C.ar    1  UNL1        0.0378
     29 C         142.8492  138.4262  158.7809 C.ar    1  UNL1        0.0154
     30 C         142.8521  138.2147  157.2959 C.ar    1  UNL1        0.0684
     31 CL        142.3901  136.9074  156.7236 Cl      1  UNL1       -0.0814
     32 C         143.3169  139.3105  156.3831 C.ar    1  UNL1        0.0712
     33 CL        143.3197  139.0990  154.8981 Cl      1  UNL1       -0.0813
     34 C         143.7789  140.6178  156.9554 C.ar    1  UNL1        0.0491
@<TRIPOS>UNITY_ATOM_ATTR
9 1
charge -1
@<TRIPOS>BOND
     1    12    13    1
     2    13    14   ar
     3    14    15   ar
     4    15    16   ar
     5    16    17   ar
     6    17    11    1
     7     7    11    1
     8     7     8    1
     9     8     9   ar
    10     8    10   ar
    11     7     1    1
    12     1     2    1
    13     2     3    1
    14     3     4    1
    15     4    19    1
    16    19    20    1
    17    20    21    1
    18    21    22    1
    19    22    23    1
    20    23    26    1
    21    26    27    1
    22    27    28   ar
    23    28    29   ar
    24    29    30   ar
    25    30    31    1
    26    30    32   ar
    27    32    33    1
    28    32    34   ar
    29    23    24    1
    30    24    25    1
    31     4     5    1
    32     5     6    1
    33    17    18   ar
    34    18    13   ar
    35     6     1    1
    36    25    20    1
    37    34    27   ar
@<TRIPOS>MOLECULE
*****
 34 37 0 0 0
SMALL
GASTEIGER

@<TRIPOS>ATOM
      1 N         142.8788  141.2383  166.8862 N.3     1  UNL1       -0.2691
      2 C         142.8206  139.7426  166.7886 C.3     1  UNL1        0.0724
      3 C         143.3628  139.0485  165.5745 C.3     1  UNL1        0.0188
      4 C         143.9632  139.8500  164.4578 C.3     1  UNL1        0.0188
      5 C         144.0214  141.3458  164.5553 C.3     1  UNL1        0.0188
      6 C         143.4793  142.0399  165.7694 C.3     1  UNL1        0.0724
      7 C         142.3366  141.9324  168.1003 C.3     1  UNL1        0.0987
      8 C         143.1559  141.9981  169.3552 C.2     1  UNL1        0.0652
      9 O         142.7536  141.1949  170.5564 O.co2   1  UNL1       -0.5478
     10 O         144.3774  142.8669  169.4087 O.co2   1  UNL1       -0.5478
     11 C         140.9753  142.5608  168.0597 C.3     1  UNL1        0.0480
     12 C         138.1841  139.5463  164.8782 C.3     1  UNL1        0.0310
     13 C         138.7177  140.8976  165.2513 C.ar    1  UNL1       -0.0222
     14 C         138.3892  142.0930  164.4068 C.ar    1  UNL1       -0.0043
     15 C         138.9228  143.4443  164.7799 C.ar    1  UNL1       -0.0006
     16 C         139.7848  143.6003  165.9975 C.ar    1  UNL1       -0.0042
     17 C         140.1132  142.4049  166.8420 C.ar    1  UNL1       -0.0208
     18 C         139.5796  141.0536  166.4689 C.ar    1  UNL1       -0.0085
     19 C         144.5054  139.1559  163.2436 C.3     1  UNL1        0.0721
     20 N         143.6856  139.0889  161.9893 N.3     1  UNL1       -0.2724
     21 C         144.0952  139.8801  160.7825 C.3     1  UNL1        0.0758
     22 C         143.2754  139.8132  159.5281 C.3     1  UNL1        0.0609
     23 C         142.0460  138.9551  159.4805 C.3     1  UNL1        0.1687
     24 C         141.6364  138.1639  160.6872 C.3     1  UNL1        0.0609
     25 C         142.4562  138.2308  161.9417 C.3     1  UNL1        0.0758
     26 O         141.2263  138.8881  158.2261 O.3     1  UNL1       -0.4790
     27 C         141.3581  137.7108  157.3060 C.ar    1  UNL1        0.1393
     28 C         140.2510  137.3785  156.3500 C.ar    1  UNL1        0.0378
     29 C         140.3827  136.2013  155.4298 C.ar    1  UNL1        0.0154
     30 C         141.6216  135.3563  155.4656 C.ar    1  UNL1        0.0684
     31 CL        141.7533  134.1791  154.5454 Cl      1  UNL1       -0.0814
     32 C         142.7287  135.6886  156.4216 C.ar    1  UNL1        0.0712
     33 CL        143.9675  134.8437  156.4574 Cl      1  UNL1       -0.0813
     34 C         142.5969  136.8659  157.3418 C.ar    1  UNL1        0.0491
@<TRIPOS>UNITY_ATOM_ATTR
9 1
charge -1
@<TRIPOS>BOND
     1    12    13    1
     2    13    14   ar
     3    14    15   ar
     4    15    16   ar
     5    16    17   ar
     6    17    11    1
     7     7    11    1
     8     7     8    1
     9     8     9   ar
    10     8    10   ar
    11     7     1    1
    12     1     2    1
    13     2     3    1
    14     3     4    1
    15     4    19    1
    16    19    20    1
    17    20    21    1
    18    21    22    1
    19    22    23    1
    20    23    26    1
    21    26    27    1
    22    27    28   ar
    23    28    29   ar
    24    29    30   ar
    25    30    31    1
    26    30    32   ar
    27    32    33    1
    28    32    34   ar
    29    23    24    1
    30    24    25    1
    31     4     5    1
    32     5     6    1
    33    17    18   ar
    34    18    13   ar
    35     6     1    1
    36    25    20    1
    37    34    27   ar
