@<TRIPOS>MOLECULE
*****
 29 32 0 0 0
SMALL
GASTEIGER

@<TRIPOS>ATOM
      1 N         143.6817  141.6615  164.9075 N.3     1  UNL1       -0.2726
      2 C         144.8155  142.4636  164.3407 C.3     1  UNL1        0.0613
      3 C         145.8586  141.5061  163.8456 C.3     1  UNL1        0.0175
      4 C         145.3695  140.1123  164.1064 C.3     1  UNL1        0.0175
      5 C         144.0241  140.2083  164.7627 C.3     1  UNL1        0.0613
      6 C         142.7127  140.6033  165.3978 C.3     1  UNL1        0.0595
      7 C         142.5084  142.0874  165.4746 C.3     1  UNL1        0.1686
      8 C         143.5598  143.0175  164.9461 C.3     1  UNL1        0.0595
      9 C         142.3535  142.4683  166.9897 C.3     1  UNL1        0.0223
     10 C         142.4260  142.2154  165.5129 C.3     1  UNL1        0.0816
     11 C         141.2429  142.5165  164.6414 C.ar    1  UNL1        0.0114
     12 C         140.5729  143.8562  164.7229 C.ar    1  UNL1        0.0010
     13 C         139.3897  144.1572  163.8514 C.ar    1  UNL1        0.0305
     14 C         138.8764  143.1187  162.8985 C.ar    1  UNL1        0.1383
     15 CL        137.6932  143.4197  162.0271 Cl      1  UNL1       -0.0613
     16 N         139.5464  141.7790  162.8171 N.ar    1  UNL1       -0.2327
     17 C         140.7296  141.4780  163.6885 C.ar    1  UNL1        0.0968
     18 O         141.2527  142.6413  166.0800 O.3     1  UNL1       -0.4791
     19 C         140.5973  141.9321  167.2279 C.ar    1  UNL1        0.1385
     20 C         139.9702  140.5857  167.0181 C.ar    1  UNL1        0.0369
     21 C         139.3149  139.8766  168.1660 C.ar    1  UNL1        0.0033
     22 C         139.2867  140.5138  169.5236 C.ar    1  UNL1        0.0047
     23 C         139.9139  141.8601  169.7333 C.ar    1  UNL1        0.0561
     24 C         140.5692  142.5693  168.5854 C.ar    1  UNL1        0.0414
     25 C         139.8857  142.4973  171.0910 C.2     1  UNL1        0.2428
     26 N         138.8555  143.5402  171.4088 N.am    1  UNL1       -0.3253
     27 O         140.8878  142.0915  172.1309 O.2     1  UNL1       -0.2704
     28 H         138.1979  143.8065  170.7263 H       1  UNL1        0.1453
     29 H         138.8371  143.9584  172.2999 H       1  UNL1        0.1453
@<TRIPOS>BOND
     1    10     9    1
     2    10    11    1
     3    11    12   ar
     4    12    13   ar
     5    13    14   ar
     6    14    15    1
     7    14    16   ar
     8    16    17   ar
     9    10     1    1
    10     1     2    1
    11     2     3    1
    12     3     4    1
    13     5     4    1
    14     5     6    1
    15     6     7    1
    16     7    18    1
    17    18    19    1
    18    19    20   ar
    19    20    21   ar
    20    21    22   ar
    21    22    23   ar
    22    23    25    1
    23    25    26   am
    24    25    27    2
    25    23    24   ar
    26     7     8    1
    27    17    11   ar
    28     5     1    1
    29    24    19   ar
    30     8     2    1
    31    26    28    1
    32    26    29    1
@<TRIPOS>MOLECULE
*****
 29 32 0 0 0
SMALL
GASTEIGER

@<TRIPOS>ATOM
      1 N         140.4206  143.3391  163.8356 N.3     1  UNL1       -0.2726
      2 C         140.6958  143.3282  162.3611 C.3     1  UNL1        0.0613
      3 C         139.9357  144.4621  161.7393 C.3     1  UNL1        0.0175
      4 C         139.1908  145.1738  162.8295 C.3     1  UNL1        0.0175
      5 C         139.4905  144.4797  164.1251 C.3     1  UNL1        0.0613
      6 C         139.9626  143.5999  165.2574 C.3     1  UNL1        0.0595
      7 C         140.8863  142.5031  164.8172 C.3     1  UNL1        0.1686
      8 C         141.2529  142.3672  163.3691 C.3     1  UNL1        0.0595
      9 C         142.2127  142.7345  165.6169 C.3     1  UNL1        0.0223
     10 C         140.9777  142.3781  164.8436 C.3     1  UNL1        0.0816
     11 C         140.2999  141.0608  165.0783 C.ar    1  UNL1        0.0114
     12 C         138.8381  141.0184  165.4124 C.ar    1  UNL1        0.0010
     13 C         138.1604  139.7010  165.6471 C.ar    1  UNL1        0.0305
     14 C         138.9442  138.4260  165.5478 C.ar    1  UNL1        0.1383
     15 CL        138.2664  137.1087  165.7826 Cl      1  UNL1       -0.0613
     16 N         140.4060  138.4684  165.2137 N.ar    1  UNL1       -0.2327
     17 C         141.0838  139.7857  164.9790 C.ar    1  UNL1        0.0968
     18 O         141.4435  141.5421  165.8253 O.3     1  UNL1       -0.4791
     19 C         141.7847  142.0179  167.2063 C.ar    1  UNL1        0.1385
     20 C         143.1884  141.8880  167.7189 C.ar    1  UNL1        0.0369
     21 C         143.5297  142.3638  169.0998 C.ar    1  UNL1        0.0033
     22 C         142.4672  142.9695  169.9683 C.ar    1  UNL1        0.0047
     23 C         141.0635  143.0994  169.4557 C.ar    1  UNL1        0.0561
     24 C         140.7222  142.6236  168.0747 C.ar    1  UNL1        0.0414
     25 C         140.0010  143.7051  170.3242 C.2     1  UNL1        0.2428
     26 N         139.0471  142.8198  171.0701 N.am    1  UNL1       -0.3253
     27 O         139.8924  145.1962  170.4469 O.2     1  UNL1       -0.2704
     28 H         139.1183  141.8412  170.9896 H       1  UNL1        0.1453
     29 H         138.3498  143.2174  171.6401 H       1  UNL1        0.1453
@<TRIPOS>BOND
     1    10     9    1
     2    10    11    1
     3    11    12   ar
     4    12    13   ar
     5    13    14   ar
     6    14    15    1
     7    14    16   ar
     8    16    17   ar
     9    10     1    1
    10     1     2    1
    11     2     3    1
    12     3     4    1
    13     5     4    1
    14     5     6    1
    15     6     7    1
    16     7    18    1
    17    18    19    1
    18    19    20   ar
    19    20    21   ar
    20    21    22   ar
    21    22    23   ar
    22    23    25    1
    23    25    26   am
    24    25    27    2
    25    23    24   ar
    26     7     8    1
    27    17    11   ar
    28     5     1    1
    29    24    19   ar
    30     8     2    1
    31    26    28    1
    32    26    29    1
@<TRIPOS>MOLECULE
*****
 29 32 0 0 0
SMALL
GASTEIGER

@<TRIPOS>ATOM
      1 N         141.5431  143.5232  164.6344 N.3     1  UNL1       -0.2726
      2 C         140.9310  144.7599  164.0464 C.3     1  UNL1        0.0613
      3 C         142.0271  145.5621  163.4101 C.3     1  UNL1        0.0175
      4 C         143.3167  144.8211  163.6048 C.3     1  UNL1        0.0175
      5 C         143.0175  143.5610  164.3615 C.3     1  UNL1        0.0613
      6 C         142.4310  142.3923  165.1160 C.3     1  UNL1        0.0595
      7 C         140.9474  142.4919  165.3136 C.3     1  UNL1        0.1686
      8 C         140.1974  143.6757  164.7787 C.3     1  UNL1        0.0595
      9 C         140.7182  142.4741  166.8636 C.3     1  UNL1        0.0223
     10 C         140.8095  142.4390  165.3668 C.3     1  UNL1        0.0816
     11 C         140.1672  141.3196  164.6023 C.ar    1  UNL1        0.0114
     12 C         140.9720  140.5267  163.6154 C.ar    1  UNL1        0.0010
     13 C         140.3296  139.4073  162.8510 C.ar    1  UNL1        0.0305
     14 C         138.8826  139.0808  163.0732 C.ar    1  UNL1        0.1383
     15 CL        138.2403  137.9614  162.3088 Cl      1  UNL1       -0.0613
     16 N         138.0778  139.8737  164.0601 N.ar    1  UNL1       -0.2327
     17 C         138.7201  140.9931  164.8246 C.ar    1  UNL1        0.0968
     18 O         140.2138  141.4076  166.0459 O.3     1  UNL1       -0.4791
     19 C         140.8729  140.6978  167.1913 C.ar    1  UNL1        0.1385
     20 C         142.1210  139.8987  166.9601 C.ar    1  UNL1        0.0369
     21 C         142.7800  139.1890  168.1055 C.ar    1  UNL1        0.0033
     22 C         142.1909  139.2783  169.4820 C.ar    1  UNL1        0.0047
     23 C         140.9428  140.0775  169.7132 C.ar    1  UNL1        0.0561
     24 C         140.2837  140.7872  168.5678 C.ar    1  UNL1        0.0414
     25 C         140.3537  140.1668  171.0898 C.2     1  UNL1        0.2428
     26 N         139.5546  139.0225  171.6394 N.am    1  UNL1       -0.3253
     27 O         140.5636  141.4005  171.9168 O.2     1  UNL1       -0.2704
     28 H         139.4167  138.2128  171.0966 H       1  UNL1        0.1453
     29 H         139.1679  139.0812  172.5429 H       1  UNL1        0.1453
@<TRIPOS>BOND
     1    10     9    1
     2    10    11    1
     3    11    12   ar
     4    12    13   ar
     5    13    14   ar
     6    14    15    1
     7    14    16   ar
     8    16    17   ar
     9    10     1    1
    10     1     2    1
    11     2     3    1
    12     3     4    1
    13     5     4    1
    14     5     6    1
    15     6     7    1
    16     7    18    1
    17    18    19    1
    18    19    20   ar
    19    20    21   ar
    20    21    22   ar
    21    22    23   ar
    22    23    25    1
    23    25    26   am
    24    25    27    2
    25    23    24   ar
    26     7     8    1
    27    17    11   ar
    28     5     1    1
    29    24    19   ar
    30     8     2    1
    31    26    28    1
    32    26    29    1
@<TRIPOS>MOLECULE
*****
 29 32 0 0 0
SMALL
GASTEIGER

@<TRIPOS>ATOM
      1 N         139.6533  139.6587  164.1553 N.3     1  UNL1       -0.2726
      2 C         138.4168  139.0114  163.6057 C.3     1  UNL1        0.0613
      3 C         138.8293  137.7649  162.8805 C.3     1  UNL1        0.0175
      4 C         140.3208  137.6417  162.9820 C.3     1  UNL1        0.0175
      5 C         140.8301  138.8121  163.7698 C.3     1  UNL1        0.0613
      6 C         141.0509  140.0687  164.5768 C.3     1  UNL1        0.0595
      7 C         139.7847  140.8108  164.8867 C.3     1  UNL1        0.1686
      8 C         138.4676  140.2821  164.4011 C.3     1  UNL1        0.0595
      9 C         139.6945  140.8767  166.4498 C.3     1  UNL1        0.0223
     10 C         139.7041  140.9294  164.9508 C.3     1  UNL1        0.0816
     11 C         139.7646  142.2527  164.2471 C.ar    1  UNL1        0.0114
     12 C         138.7454  143.3108  164.5506 C.ar    1  UNL1        0.0010
     13 C         138.8060  144.6341  163.8469 C.ar    1  UNL1        0.0305
     14 C         139.8855  144.8995  162.8399 C.ar    1  UNL1        0.1383
     15 CL        139.9459  146.2228  162.1363 Cl      1  UNL1       -0.0613
     16 N         140.9046  143.8414  162.5365 N.ar    1  UNL1       -0.2327
     17 C         140.8442  142.5181  163.2401 C.ar    1  UNL1        0.0968
     18 O         139.8356  142.0815  165.6822 O.3     1  UNL1       -0.4791
     19 C         140.8066  142.2173  166.8174 C.ar    1  UNL1        0.1385
     20 C         142.2819  142.2162  166.5466 C.ar    1  UNL1        0.0369
     21 C         143.2529  142.3520  167.6818 C.ar    1  UNL1        0.0033
     22 C         142.7485  142.4889  169.0878 C.ar    1  UNL1        0.0047
     23 C         141.2732  142.4900  169.3586 C.ar    1  UNL1        0.0561
     24 C         140.3022  142.3542  168.2234 C.ar    1  UNL1        0.0414
     25 C         140.7689  142.6268  170.7646 C.2     1  UNL1        0.2428
     26 N         139.4067  143.2007  171.0203 N.am    1  UNL1       -0.3253
     27 O         141.6267  142.1898  171.9150 O.2     1  UNL1       -0.2704
     28 H         138.8438  143.4875  170.2653 H       1  UNL1        0.1453
     29 H         139.0758  143.2905  171.9432 H       1  UNL1        0.1453
@<TRIPOS>BOND
     1    10     9    1
     2    10    11    1
     3    11    12   ar
     4    12    13   ar
     5    13    14   ar
     6    14    15    1
     7    14    16   ar
     8    16    17   ar
     9    10     1    1
    10     1     2    1
    11     2     3    1
    12     3     4    1
    13     5     4    1
    14     5     6    1
    15     6     7    1
    16     7    18    1
    17    18    19    1
    18    19    20   ar
    19    20    21   ar
    20    21    22   ar
    21    22    23   ar
    22    23    25    1
    23    25    26   am
    24    25    27    2
    25    23    24   ar
    26     7     8    1
    27    17    11   ar
    28     5     1    1
    29    24    19   ar
    30     8     2    1
    31    26    28    1
    32    26    29    1
@<TRIPOS>MOLECULE
*****
 29 32 0 0 0
SMALL
GASTEIGER

@<TRIPOS>ATOM
      1 N         141.7330  142.3487  168.4261 N.3     1  UNL1       -0.2726
      2 C         141.4923  143.1758  169.6541 C.3     1  UNL1        0.0613
      3 C         142.7539  143.1792  170.4654 C.3     1  UNL1        0.0175
      4 C         143.7744  142.3541  169.7389 C.3     1  UNL1        0.0175
      5 C         143.1434  141.8408  168.4786 C.3     1  UNL1        0.0613
      6 C         142.2648  141.4751  167.3067 C.3     1  UNL1        0.0595
      7 C         140.8835  142.0539  167.3913 C.3     1  UNL1        0.1686
      8 C         140.4973  142.9043  168.5650 C.3     1  UNL1        0.0595
      9 C         139.8153  140.8990  167.4408 C.3     1  UNL1        0.0223
     10 C         140.7380  142.0771  167.3370 C.3     1  UNL1        0.0816
     11 C         140.6657  142.9835  166.1441 C.ar    1  UNL1        0.0114
     12 C         139.4148  143.7649  165.8706 C.ar    1  UNL1        0.0010
     13 C         139.3426  144.6714  164.6776 C.ar    1  UNL1        0.0305
     14 C         140.5211  144.7966  163.7583 C.ar    1  UNL1        0.1383
     15 CL        140.4488  145.7031  162.5654 Cl      1  UNL1       -0.0613
     16 N         141.7720  144.0152  164.0318 N.ar    1  UNL1       -0.2327
     17 C         141.8443  143.1087  165.2247 C.ar    1  UNL1        0.0968
     18 O         139.8885  141.7822  166.3021 O.3     1  UNL1       -0.4791
     19 C         139.7541  140.3993  165.7368 C.ar    1  UNL1        0.1385
     20 C         138.6425  139.5047  166.1995 C.ar    1  UNL1        0.0369
     21 C         138.5081  138.1219  165.6343 C.ar    1  UNL1        0.0033
     22 C         139.4853  137.6335  164.6064 C.ar    1  UNL1        0.0047
     23 C         140.5969  138.5281  164.1438 C.ar    1  UNL1        0.0561
     24 C         140.7313  139.9110  164.7090 C.ar    1  UNL1        0.0414
     25 C         141.5742  138.0397  163.1159 C.2     1  UNL1        0.2428
     26 N         143.0361  138.3382  163.2694 N.am    1  UNL1       -0.3253
     27 O         141.0894  137.2528  161.9344 O.2     1  UNL1       -0.2704
     28 H         143.3543  138.8547  164.0449 H       1  UNL1        0.1453
     29 H         143.6775  138.0177  162.5948 H       1  UNL1        0.1453
@<TRIPOS>BOND
     1    10     9    1
     2    10    11    1
     3    11    12   ar
     4    12    13   ar
     5    13    14   ar
     6    14    15    1
     7    14    16   ar
     8    16    17   ar
     9    10     1    1
    10     1     2    1
    11     2     3    1
    12     3     4    1
    13     5     4    1
    14     5     6    1
    15     6     7    1
    16     7    18    1
    17    18    19    1
    18    19    20   ar
    19    20    21   ar
    20    21    22   ar
    21    22    23   ar
    22    23    25    1
    23    25    26   am
    24    25    27    2
    25    23    24   ar
    26     7     8    1
    27    17    11   ar
    28     5     1    1
    29    24    19   ar
    30     8     2    1
    31    26    28    1
    32    26    29    1
@<TRIPOS>MOLECULE
*****
 29 32 0 0 0
SMALL
GASTEIGER

@<TRIPOS>ATOM
      1 N         143.8859  140.7364  165.0208 N.3     1  UNL1       -0.2726
      2 C         145.0865  140.3348  164.2162 C.3     1  UNL1        0.0613
      3 C         145.8074  141.5839  163.8042 C.3     1  UNL1        0.0175
      4 C         145.0524  142.7576  164.3542 C.3     1  UNL1        0.0175
      5 C         143.8649  142.2338  165.1061 C.3     1  UNL1        0.0613
      6 C         142.7755  141.4355  165.7806 C.3     1  UNL1        0.0595
      7 C         142.9276  139.9530  165.6103 C.3     1  UNL1        0.1686
      8 C         144.0831  139.4026  164.8281 C.3     1  UNL1        0.0595
      9 C         143.0334  139.3727  167.0614 C.3     1  UNL1        0.0223
     10 C         142.8826  139.8042  165.6327 C.3     1  UNL1        0.0816
     11 C         141.7284  139.3035  164.8158 C.ar    1  UNL1        0.0114
     12 C         141.4853  137.8290  164.6858 C.ar    1  UNL1        0.0010
     13 C         140.3311  137.3284  163.8689 C.ar    1  UNL1        0.0305
     14 C         139.4201  138.3021  163.1822 C.ar    1  UNL1        0.1383
     15 CL        138.2659  137.8014  162.3653 Cl      1  UNL1       -0.0613
     16 N         139.6631  139.7766  163.3122 N.ar    1  UNL1       -0.2327
     17 C         140.8173  140.2773  164.1290 C.ar    1  UNL1        0.0968
     18 O         141.9242  139.0208  166.2222 O.3     1  UNL1       -0.4791
     19 C         141.0567  139.4897  167.3525 C.ar    1  UNL1        0.1385
     20 C         139.5642  139.4878  167.2031 C.ar    1  UNL1        0.0369
     21 C         138.6967  139.9566  168.3334 C.ar    1  UNL1        0.0033
     22 C         139.3217  140.4275  169.6130 C.ar    1  UNL1        0.0047
     23 C         140.8142  140.4295  169.7624 C.ar    1  UNL1        0.0561
     24 C         141.6818  139.9606  168.6321 C.ar    1  UNL1        0.0414
     25 C         141.4393  140.9003  171.0421 C.2     1  UNL1        0.2428
     26 N         142.7611  140.3432  171.4807 N.am    1  UNL1       -0.3253
     27 O         140.7424  141.9285  171.8833 O.2     1  UNL1       -0.2704
     28 H         143.2185  139.6684  170.9286 H       1  UNL1        0.1453
     29 H         143.1713  140.6522  172.3206 H       1  UNL1        0.1453
@<TRIPOS>BOND
     1    10     9    1
     2    10    11    1
     3    11    12   ar
     4    12    13   ar
     5    13    14   ar
     6    14    15    1
     7    14    16   ar
     8    16    17   ar
     9    10     1    1
    10     1     2    1
    11     2     3    1
    12     3     4    1
    13     5     4    1
    14     5     6    1
    15     6     7    1
    16     7    18    1
    17    18    19    1
    18    19    20   ar
    19    20    21   ar
    20    21    22   ar
    21    22    23   ar
    22    23    25    1
    23    25    26   am
    24    25    27    2
    25    23    24   ar
    26     7     8    1
    27    17    11   ar
    28     5     1    1
    29    24    19   ar
    30     8     2    1
    31    26    28    1
    32    26    29    1
@<TRIPOS>MOLECULE
*****
 29 32 0 0 0
SMALL
GASTEIGER

@<TRIPOS>ATOM
      1 N         139.0681  139.4377  163.6715 N.3     1  UNL1       -0.2726
      2 C         137.8775  139.5796  162.7702 C.3     1  UNL1        0.0613
      3 C         137.9375  138.4844  161.7470 C.3     1  UNL1        0.0175
      4 C         139.1652  137.6657  162.0159 C.3     1  UNL1        0.0175
      5 C         139.8640  138.2548  163.2053 C.3     1  UNL1        0.0613
      6 C         140.3397  139.0470  164.3992 C.3     1  UNL1        0.0595
      7 C         139.4444  140.1988  164.7479 C.3     1  UNL1        0.1686
      8 C         138.2132  140.4651  163.9334 C.3     1  UNL1        0.0595
      9 C         139.0524  139.8957  166.2289 C.3     1  UNL1        0.0223
     10 C         139.4039  140.3233  164.8347 C.3     1  UNL1        0.0816
     11 C         140.0911  141.6364  164.6038 C.ar    1  UNL1        0.0114
     12 C         139.4884  142.9024  165.1370 C.ar    1  UNL1        0.0010
     13 C         140.1758  144.2155  164.9060 C.ar    1  UNL1        0.0305
     14 C         141.4657  144.2627  164.1419 C.ar    1  UNL1        0.1383
     15 CL        142.1529  145.5758  163.9110 Cl      1  UNL1       -0.0613
     16 N         142.0683  142.9967  163.6088 N.ar    1  UNL1       -0.2327
     17 C         141.3811  141.6836  163.8397 C.ar    1  UNL1        0.0968
     18 O         139.7802  141.0844  165.9112 O.3     1  UNL1       -0.4791
     19 C         140.5992  140.5500  167.0487 C.ar    1  UNL1        0.1385
     20 C         141.9374  139.9274  166.7817 C.ar    1  UNL1        0.0369
     21 C         142.7563  139.3930  167.9190 C.ar    1  UNL1        0.0033
     22 C         142.2370  139.4813  169.3235 C.ar    1  UNL1        0.0047
     23 C         140.8988  140.1039  169.5905 C.ar    1  UNL1        0.0561
     24 C         140.0798  140.6383  168.4530 C.ar    1  UNL1        0.0414
     25 C         140.3795  140.1922  170.9949 C.2     1  UNL1        0.2428
     26 N         139.5450  139.0798  171.5574 N.am    1  UNL1       -0.3253
     27 O         140.6946  141.3930  171.8371 O.2     1  UNL1       -0.2704
     28 H         139.3382  138.2918  171.0047 H       1  UNL1        0.1453
     29 H         139.2042  139.1378  172.4792 H       1  UNL1        0.1453
@<TRIPOS>BOND
     1    10     9    1
     2    10    11    1
     3    11    12   ar
     4    12    13   ar
     5    13    14   ar
     6    14    15    1
     7    14    16   ar
     8    16    17   ar
     9    10     1    1
    10     1     2    1
    11     2     3    1
    12     3     4    1
    13     5     4    1
    14     5     6    1
    15     6     7    1
    16     7    18    1
    17    18    19    1
    18    19    20   ar
    19    20    21   ar
    20    21    22   ar
    21    22    23   ar
    22    23    25    1
    23    25    26   am
    24    25    27    2
    25    23    24   ar
    26     7     8    1
    27    17    11   ar
    28     5     1    1
    29    24    19   ar
    30     8     2    1
    31    26    28    1
    32    26    29    1
@<TRIPOS>MOLECULE
*****
 29 32 0 0 0
SMALL
GASTEIGER

@<TRIPOS>ATOM
      1 N         139.3812  142.8436  164.7112 N.3     1  UNL1       -0.2726
      2 C         138.8994  144.0625  163.9817 C.3     1  UNL1        0.0613
      3 C         137.6624  143.6884  163.2202 C.3     1  UNL1        0.0175
      4 C         137.3797  142.2382  163.4791 C.3     1  UNL1        0.0175
      5 C         138.4419  141.7161  164.4005 C.3     1  UNL1        0.0613
      6 C         139.6184  141.4730  165.3148 C.3     1  UNL1        0.0595
      7 C         140.4677  142.6900  165.5330 C.3     1  UNL1        0.1686
      8 C         140.1082  143.9848  164.8664 C.3     1  UNL1        0.0595
      9 C         140.4457  142.9346  167.0794 C.3     1  UNL1        0.0223
     10 C         140.5900  142.7659  165.5959 C.3     1  UNL1        0.0816
     11 C         141.9430  142.5194  164.9971 C.ar    1  UNL1        0.0114
     12 C         143.1123  143.3618  165.4136 C.ar    1  UNL1        0.0010
     13 C         144.4653  143.1153  164.8148 C.ar    1  UNL1        0.0305
     14 C         144.6492  142.0266  163.7996 C.ar    1  UNL1        0.1383
     15 CL        146.0022  141.7801  163.2009 Cl      1  UNL1       -0.0613
     16 N         143.4799  141.1842  163.3831 N.ar    1  UNL1       -0.2327
     17 C         142.1269  141.4307  163.9819 C.ar    1  UNL1        0.0968
     18 O         141.6765  142.6122  166.4178 O.3     1  UNL1       -0.4791
     19 C         141.8053  141.4996  167.4155 C.ar    1  UNL1        0.1385
     20 C         142.6333  140.2921  167.0897 C.ar    1  UNL1        0.0369
     21 C         142.7621  139.1795  168.0873 C.ar    1  UNL1        0.0033
     22 C         142.0628  139.2744  169.4110 C.ar    1  UNL1        0.0047
     23 C         141.2348  140.4820  169.7368 C.ar    1  UNL1        0.0561
     24 C         141.1060  141.5946  168.7391 C.ar    1  UNL1        0.0414
     25 C         140.5355  140.5769  171.0605 C.2     1  UNL1        0.2428
     26 N         139.7364  139.4149  171.5716 N.am    1  UNL1       -0.3253
     27 O         140.6354  141.8338  171.8731 O.2     1  UNL1       -0.2704
     28 H         139.6709  138.5899  171.0383 H       1  UNL1        0.1453
     29 H         139.2775  139.4772  172.4404 H       1  UNL1        0.1453
@<TRIPOS>BOND
     1    10     9    1
     2    10    11    1
     3    11    12   ar
     4    12    13   ar
     5    13    14   ar
     6    14    15    1
     7    14    16   ar
     8    16    17   ar
     9    10     1    1
    10     1     2    1
    11     2     3    1
    12     3     4    1
    13     5     4    1
    14     5     6    1
    15     6     7    1
    16     7    18    1
    17    18    19    1
    18    19    20   ar
    19    20    21   ar
    20    21    22   ar
    21    22    23   ar
    22    23    25    1
    23    25    26   am
    24    25    27    2
    25    23    24   ar
    26     7     8    1
    27    17    11   ar
    28     5     1    1
    29    24    19   ar
    30     8     2    1
    31    26    28    1
    32    26    29    1
@<TRIPOS>MOLECULE
*****
 29 32 0 0 0
SMALL
GASTEIGER

@<TRIPOS>ATOM
      1 N         142.6778  140.1991  164.6669 N.3     1  UNL1       -0.2726
      2 C         143.0078  139.2408  163.5612 C.3     1  UNL1        0.0613
      3 C         144.4782  139.3429  163.2827 C.3     1  UNL1        0.0175
      4 C         145.0569  140.3643  164.2163 C.3     1  UNL1        0.0175
      5 C         143.9442  140.8935  165.0719 C.3     1  UNL1        0.0613
      6 C         142.6523  141.2345  165.7745 C.3     1  UNL1        0.0595
      7 C         141.4720  140.4621  165.2640 C.3     1  UNL1        0.1686
      8 C         141.6498  139.4653  164.1573 C.3     1  UNL1        0.0595
      9 C         140.8790  139.6184  166.4495 C.3     1  UNL1        0.0223
     10 C         141.3198  140.4236  165.2631 C.3     1  UNL1        0.0816
     11 C         140.4025  141.4533  164.6729 C.ar    1  UNL1        0.0114
     12 C         140.8533  142.8791  164.5537 C.ar    1  UNL1        0.0010
     13 C         139.9359  143.9088  163.9635 C.ar    1  UNL1        0.0305
     14 C         138.5680  143.5128  163.4925 C.ar    1  UNL1        0.1383
     15 CL        137.6508  144.5425  162.9023 Cl      1  UNL1       -0.0613
     16 N         138.1173  142.0870  163.6117 N.ar    1  UNL1       -0.2327
     17 C         139.0345  141.0573  164.2019 C.ar    1  UNL1        0.0968
     18 O         140.1140  140.6867  165.8602 O.3     1  UNL1       -0.4791
     19 C         139.9730  140.9337  167.3330 C.ar    1  UNL1        0.1385
     20 C         139.2736  139.9280  168.1986 C.ar    1  UNL1        0.0369
     21 C         139.1327  140.1751  169.6713 C.ar    1  UNL1        0.0033
     22 C         139.6911  141.4279  170.2785 C.ar    1  UNL1        0.0047
     23 C         140.3905  142.4336  169.4129 C.ar    1  UNL1        0.0561
     24 C         140.5315  142.1865  167.9401 C.ar    1  UNL1        0.0414
     25 C         140.9490  143.6863  170.0201 C.2     1  UNL1        0.2428
     26 N         140.0543  144.8656  170.2628 N.am    1  UNL1       -0.3253
     27 O         142.4022  143.7599  170.3846 O.2     1  UNL1       -0.2704
     28 H         139.1005  144.8173  170.0235 H       1  UNL1        0.1453
     29 H         140.4208  145.6878  170.6613 H       1  UNL1        0.1453
@<TRIPOS>BOND
     1    10     9    1
     2    10    11    1
     3    11    12   ar
     4    12    13   ar
     5    13    14   ar
     6    14    15    1
     7    14    16   ar
     8    16    17   ar
     9    10     1    1
    10     1     2    1
    11     2     3    1
    12     3     4    1
    13     5     4    1
    14     5     6    1
    15     6     7    1
    16     7    18    1
    17    18    19    1
    18    19    20   ar
    19    20    21   ar
    20    21    22   ar
    21    22    23   ar
    22    23    25    1
    23    25    26   am
    24    25    27    2
    25    23    24   ar
    26     7     8    1
    27    17    11   ar
    28     5     1    1
    29    24    19   ar
    30     8     2    1
    31    26    28    1
    32    26    29    1
