@<TRIPOS>MOLECULE
*****
 35 37 0 0 0
SMALL
GASTEIGER

@<TRIPOS>ATOM
      1 C         140.4298  143.0824  162.4578 C.3     1  UNL1        0.0241
      2 C         141.1695  143.6887  163.6132 C.3     1  UNL1        0.0232
      3 C         141.0117  143.1137  164.9896 C.3     1  UNL1        0.0938
      4 N         140.1142  141.9323  165.2104 N.am    1  UNL1       -0.2760
      5 C         139.9564  141.3572  166.5869 C.2     1  UNL1        0.2503
      6 O         139.0589  140.1758  166.8077 O.2     1  UNL1       -0.2699
      7 C         139.3745  141.3260  164.0550 C.3     1  UNL1        0.0938
      8 C         139.5322  141.9010  162.6786 C.3     1  UNL1        0.0232
      9 C         140.6962  141.9635  167.7423 C.ar    1  UNL1        0.0729
     10 C         140.1307  143.1586  168.4508 C.ar    1  UNL1        0.0354
     11 C         140.8706  143.7649  169.6063 C.ar    1  UNL1        0.1404
     12 F         140.3051  144.9600  170.3149 F       1  UNL1       -0.2042
     13 C         142.1757  143.1761  170.0533 C.ar    1  UNL1        0.0310
     14 C         142.7411  141.9810  169.3448 C.ar    1  UNL1        0.0208
     15 C         142.0014  141.3747  168.1893 C.ar    1  UNL1        0.1102
     16 S         142.5668  140.1796  167.4808 S.O2    1  UNL1        0.0106
     17 C         143.1323  138.9845  166.7723 C.3     1  UNL1        0.1816
     18 O         143.2124  141.0829  166.4722 O.2     1  UNL1       -0.1686
     19 O         141.9213  139.2762  168.4894 O.2     1  UNL1       -0.1686
     20 C         139.5495  142.7058  160.5648 C.3     1  UNL1        0.0240
     21 C         140.5875  143.6575  161.0813 C.3     1  UNL1        0.1151
     22 C         141.6255  144.6092  161.5979 C.3     1  UNL1        0.0240
     23 S         140.7452  144.2325  159.7050 S.O2    1  UNL1        0.0054
     24 O         142.1591  144.6160  160.0272 O.2     1  UNL1       -0.1687
     25 O         139.3314  143.8491  159.3828 O.2     1  UNL1       -0.1687
     26 C         140.9029  144.8076  158.3285 C.ar    1  UNL1        0.1055
     27 C         141.9675  144.2802  157.4128 C.ar    1  UNL1        0.0183
     28 C         142.1251  144.8552  156.0364 C.ar    1  UNL1        0.0013
     29 C         141.2182  145.9576  155.5758 C.ar    1  UNL1        0.0039
     30 C         140.1536  146.4850  156.4915 C.ar    1  UNL1        0.0727
     31 C         139.9960  145.9100  157.8678 C.ar    1  UNL1        0.0222
     32 C         139.2467  147.5874  156.0308 C.3     1  UNL1        0.4186
     33 F         138.3397  148.6898  155.5701 F       1  UNL1       -0.1659
     34 F         139.5753  147.2615  154.6040 F       1  UNL1       -0.1659
     35 F         138.9181  147.9133  157.4576 F       1  UNL1       -0.1659
@<TRIPOS>BOND
     1    20    21    1
     2    21    22    1
     3    21     1    1
     4     1     2    1
     5     2     3    1
     6     3     4    1
     7     4     5   am
     8     5     6    2
     9     5     9    1
    10     9    10   ar
    11    10    11   ar
    12    11    12    1
    13    11    13   ar
    14    13    14   ar
    15    14    15   ar
    16    15    16    1
    17    16    17    1
    18    16    18    2
    19    16    19    2
    20     4     7    1
    21     7     8    1
    22    21    23    1
    23    23    24    2
    24    23    25    2
    25    23    26    1
    26    26    27   ar
    27    27    28   ar
    28    28    29   ar
    29    29    30   ar
    30    30    32    1
    31    32    33    1
    32    32    34    1
    33    32    35    1
    34    30    31   ar
    35     8     1    1
    36    31    26   ar
    37    15     9   ar
@<TRIPOS>MOLECULE
*****
 35 37 0 0 0
SMALL
GASTEIGER

@<TRIPOS>ATOM
      1 C         138.9783  141.2833  163.1837 C.3     1  UNL1        0.0241
      2 C         139.8695  142.1989  163.9694 C.3     1  UNL1        0.0232
      3 C         140.0929  141.9545  165.4324 C.3     1  UNL1        0.0938
      4 N         139.4252  140.7946  166.1096 N.am    1  UNL1       -0.2760
      5 C         139.6486  140.5503  167.5727 C.2     1  UNL1        0.2503
      6 O         138.9809  139.3904  168.2500 O.2     1  UNL1       -0.2699
      7 C         138.5340  139.8790  165.3239 C.3     1  UNL1        0.0938
      8 C         138.3105  140.1233  163.8610 C.3     1  UNL1        0.0232
      9 C         140.5398  141.4659  168.3584 C.ar    1  UNL1        0.0729
     10 C         139.9753  142.7063  168.9852 C.ar    1  UNL1        0.0354
     11 C         140.8666  143.6219  169.7709 C.ar    1  UNL1        0.1404
     12 F         140.3020  144.8622  170.3977 F       1  UNL1       -0.2042
     13 C         142.3223  143.2971  169.9299 C.ar    1  UNL1        0.0310
     14 C         142.8869  142.0568  169.3031 C.ar    1  UNL1        0.0208
     15 C         141.9957  141.1412  168.5174 C.ar    1  UNL1        0.1102
     16 S         142.5602  139.9008  167.8907 S.O2    1  UNL1        0.0106
     17 C         143.1248  138.6605  167.2639 C.3     1  UNL1        0.1816
     18 O         142.2411  139.1267  169.1352 O.2     1  UNL1       -0.1686
     19 O         142.8794  140.6750  166.6461 O.2     1  UNL1       -0.1686
     20 C         139.3166  140.1723  161.4086 C.3     1  UNL1        0.0240
     21 C         138.7548  141.5276  161.7207 C.3     1  UNL1        0.1151
     22 C         138.1929  142.8829  162.0327 C.3     1  UNL1        0.0240
     23 S         138.5313  141.7718  160.2577 S.O2    1  UNL1        0.0054
     24 O         138.4452  143.2467  160.5171 O.2     1  UNL1       -0.1687
     25 O         138.6174  140.2970  159.9983 O.2     1  UNL1       -0.1687
     26 C         138.3079  142.0160  158.7946 C.ar    1  UNL1        0.1055
     27 C         139.0069  143.1520  158.1085 C.ar    1  UNL1        0.0183
     28 C         138.7834  143.3962  156.6455 C.ar    1  UNL1        0.0013
     29 C         137.8609  142.5043  155.8686 C.ar    1  UNL1        0.0039
     30 C         137.1619  141.3683  156.5547 C.ar    1  UNL1        0.0727
     31 C         137.3853  141.1242  158.0177 C.ar    1  UNL1        0.0222
     32 C         136.2393  140.4765  155.7778 C.3     1  UNL1        0.4186
     33 F         135.3168  139.5846  155.0009 F       1  UNL1       -0.1659
     34 F         135.1949  140.6283  156.8437 F       1  UNL1       -0.1659
     35 F         137.2837  140.3247  154.7119 F       1  UNL1       -0.1659
@<TRIPOS>BOND
     1    20    21    1
     2    21    22    1
     3    21     1    1
     4     1     2    1
     5     2     3    1
     6     3     4    1
     7     4     5   am
     8     5     6    2
     9     5     9    1
    10     9    10   ar
    11    10    11   ar
    12    11    12    1
    13    11    13   ar
    14    13    14   ar
    15    14    15   ar
    16    15    16    1
    17    16    17    1
    18    16    18    2
    19    16    19    2
    20     4     7    1
    21     7     8    1
    22    21    23    1
    23    23    24    2
    24    23    25    2
    25    23    26    1
    26    26    27   ar
    27    27    28   ar
    28    28    29   ar
    29    29    30   ar
    30    30    32    1
    31    32    33    1
    32    32    34    1
    33    32    35    1
    34    30    31   ar
    35     8     1    1
    36    31    26   ar
    37    15     9   ar
@<TRIPOS>MOLECULE
*****
 35 37 0 0 0
SMALL
GASTEIGER

@<TRIPOS>ATOM
      1 C         143.2660  139.9782  163.6785 C.3     1  UNL1        0.0241
      2 C         142.7918  141.1934  164.4189 C.3     1  UNL1        0.0232
      3 C         142.6134  141.1426  165.9073 C.3     1  UNL1        0.0938
      4 N         142.9091  139.8765  166.6554 N.am    1  UNL1       -0.2760
      5 C         142.7306  139.8258  168.1439 C.2     1  UNL1        0.2503
      6 O         143.0263  138.5597  168.8920 O.2     1  UNL1       -0.2699
      7 C         143.3832  138.6613  165.9150 C.3     1  UNL1        0.0938
      8 C         143.5617  138.7121  164.4266 C.3     1  UNL1        0.0232
      9 C         142.2564  141.0410  168.8843 C.ar    1  UNL1        0.0729
     10 C         143.2463  141.9344  169.5713 C.ar    1  UNL1        0.0354
     11 C         142.7720  143.1498  170.3117 C.ar    1  UNL1        0.1404
     12 F         143.7619  144.0432  170.9987 F       1  UNL1       -0.2042
     13 C         141.3080  143.4717  170.3651 C.ar    1  UNL1        0.0310
     14 C         140.3181  142.5782  169.6781 C.ar    1  UNL1        0.0208
     15 C         140.7923  141.3630  168.9377 C.ar    1  UNL1        0.1102
     16 S         139.8024  140.4696  168.2507 S.O2    1  UNL1        0.0106
     17 C         138.8125  139.5762  167.5637 C.3     1  UNL1        0.1816
     18 O         139.7803  139.5707  169.4514 O.2     1  UNL1       -0.1686
     19 O         139.8244  141.3684  167.0501 O.2     1  UNL1       -0.1686
     20 C         143.8953  138.5983  162.1953 C.3     1  UNL1        0.0240
     21 C         143.4445  140.0289  162.1900 C.3     1  UNL1        0.1151
     22 C         142.9937  141.4596  162.1847 C.3     1  UNL1        0.0240
     23 S         143.6230  140.0797  160.7015 S.O2    1  UNL1        0.0054
     24 O         144.1943  138.6929  160.7228 O.2     1  UNL1       -0.1687
     25 O         143.0517  141.4664  160.6803 O.2     1  UNL1       -0.1687
     26 C         143.8015  140.1304  159.2130 C.ar    1  UNL1        0.1055
     27 C         142.9834  139.2368  158.3286 C.ar    1  UNL1        0.0183
     28 C         143.1620  139.2876  156.8402 C.ar    1  UNL1        0.0013
     29 C         144.1586  140.2320  156.2361 C.ar    1  UNL1        0.0039
     30 C         144.9767  141.1256  157.1205 C.ar    1  UNL1        0.0727
     31 C         144.7982  141.0748  158.6089 C.ar    1  UNL1        0.0222
     32 C         145.9733  142.0700  156.5165 C.3     1  UNL1        0.4186
     33 F         146.9700  143.0143  155.9124 F       1  UNL1       -0.1659
     34 F         146.0377  142.8287  157.8088 F       1  UNL1       -0.1659
     35 F         145.9090  141.3112  155.2241 F       1  UNL1       -0.1659
@<TRIPOS>BOND
     1    20    21    1
     2    21    22    1
     3    21     1    1
     4     1     2    1
     5     2     3    1
     6     3     4    1
     7     4     5   am
     8     5     6    2
     9     5     9    1
    10     9    10   ar
    11    10    11   ar
    12    11    12    1
    13    11    13   ar
    14    13    14   ar
    15    14    15   ar
    16    15    16    1
    17    16    17    1
    18    16    18    2
    19    16    19    2
    20     4     7    1
    21     7     8    1
    22    21    23    1
    23    23    24    2
    24    23    25    2
    25    23    26    1
    26    26    27   ar
    27    27    28   ar
    28    28    29   ar
    29    29    30   ar
    30    30    32    1
    31    32    33    1
    32    32    34    1
    33    32    35    1
    34    30    31   ar
    35     8     1    1
    36    31    26   ar
    37    15     9   ar
@<TRIPOS>MOLECULE
*****
 35 37 0 0 0
SMALL
GASTEIGER

@<TRIPOS>ATOM
      1 C         141.8043  139.9071  158.2397 C.3     1  UNL1        0.0241
      2 C         141.1737  139.9904  159.5982 C.3     1  UNL1        0.0232
      3 C         141.0600  141.3152  160.2923 C.3     1  UNL1        0.0938
      4 N         141.5770  142.5567  159.6280 N.am    1  UNL1       -0.2760
      5 C         141.4634  143.8816  160.3222 C.2     1  UNL1        0.2503
      6 O         141.9804  145.1232  159.6579 O.2     1  UNL1       -0.2699
      7 C         142.2077  142.4734  158.2696 C.3     1  UNL1        0.0938
      8 C         142.3213  141.1486  157.5755 C.3     1  UNL1        0.0232
      9 C         140.8327  143.9649  161.6806 C.ar    1  UNL1        0.0729
     10 C         139.3563  144.1967  161.8091 C.ar    1  UNL1        0.0354
     11 C         138.7257  144.2800  163.1676 C.ar    1  UNL1        0.1404
     12 F         137.2493  144.5118  163.2962 F       1  UNL1       -0.2042
     13 C         139.5715  144.1315  164.3975 C.ar    1  UNL1        0.0310
     14 C         141.0479  143.8997  164.2689 C.ar    1  UNL1        0.0208
     15 C         141.6785  143.8164  162.9105 C.ar    1  UNL1        0.1102
     16 S         143.1549  143.5846  162.7820 S.O2    1  UNL1        0.0106
     17 C         144.6313  143.3528  162.6534 C.3     1  UNL1        0.1816
     18 O         142.9354  142.1076  162.9241 O.2     1  UNL1       -0.1686
     19 O         143.3744  145.0616  162.6399 O.2     1  UNL1       -0.1686
     20 C         141.2296  139.1539  156.3418 C.3     1  UNL1        0.0240
     21 C         141.9180  138.5822  157.5456 C.3     1  UNL1        0.1151
     22 C         142.6064  138.0104  158.7493 C.3     1  UNL1        0.0240
     23 S         142.0316  137.2574  156.8514 S.O2    1  UNL1        0.0054
     24 O         140.5371  137.1301  156.8496 O.2     1  UNL1       -0.1687
     25 O         143.5262  137.3846  156.8532 O.2     1  UNL1       -0.1687
     26 C         142.1453  135.9325  156.1571 C.ar    1  UNL1        0.1055
     27 C         141.1695  135.5645  155.0791 C.ar    1  UNL1        0.0183
     28 C         141.2832  134.2397  154.3849 C.ar    1  UNL1        0.0013
     29 C         142.3728  133.2829  154.7688 C.ar    1  UNL1        0.0039
     30 C         143.3487  133.6509  155.8468 C.ar    1  UNL1        0.0727
     31 C         143.2349  134.9757  156.5410 C.ar    1  UNL1        0.0222
     32 C         144.4383  132.6942  156.2307 C.3     1  UNL1        0.4186
     33 F         145.5279  131.7374  156.6145 F       1  UNL1       -0.1659
     34 F         144.6781  133.4726  157.4902 F       1  UNL1       -0.1659
     35 F         144.1985  131.9158  154.9711 F       1  UNL1       -0.1659
@<TRIPOS>BOND
     1    20    21    1
     2    21    22    1
     3    21     1    1
     4     1     2    1
     5     2     3    1
     6     3     4    1
     7     4     5   am
     8     5     6    2
     9     5     9    1
    10     9    10   ar
    11    10    11   ar
    12    11    12    1
    13    11    13   ar
    14    13    14   ar
    15    14    15   ar
    16    15    16    1
    17    16    17    1
    18    16    18    2
    19    16    19    2
    20     4     7    1
    21     7     8    1
    22    21    23    1
    23    23    24    2
    24    23    25    2
    25    23    26    1
    26    26    27   ar
    27    27    28   ar
    28    28    29   ar
    29    29    30   ar
    30    30    32    1
    31    32    33    1
    32    32    34    1
    33    32    35    1
    34    30    31   ar
    35     8     1    1
    36    31    26   ar
    37    15     9   ar
@<TRIPOS>MOLECULE
*****
 35 37 0 0 0
SMALL
GASTEIGER

@<TRIPOS>ATOM
      1 C         141.0068  138.7536  162.1609 C.3     1  UNL1        0.0241
      2 C         142.2361  138.4540  161.3553 C.3     1  UNL1        0.0232
      3 C         142.1265  138.2243  159.8771 C.3     1  UNL1        0.0938
      4 N         140.7875  138.2941  159.2045 N.am    1  UNL1       -0.2760
      5 C         140.6780  138.0643  157.7262 C.2     1  UNL1        0.2503
      6 O         139.3390  138.1341  157.0536 O.2     1  UNL1       -0.2699
      7 C         139.5582  138.5936  160.0101 C.3     1  UNL1        0.0938
      8 C         139.6679  138.8234  161.4883 C.3     1  UNL1        0.0232
      9 C         141.9072  137.7647  156.9206 C.ar    1  UNL1        0.0729
     10 C         142.4146  136.3566  156.8219 C.ar    1  UNL1        0.0354
     11 C         143.6440  136.0570  156.0163 C.ar    1  UNL1        0.1404
     12 F         144.1513  134.6489  155.9176 F       1  UNL1       -0.2042
     13 C         144.3659  137.1656  155.3093 C.ar    1  UNL1        0.0310
     14 C         143.8586  138.5738  155.4080 C.ar    1  UNL1        0.0208
     15 C         142.6293  138.8733  156.2136 C.ar    1  UNL1        0.1102
     16 S         142.1219  140.2815  156.3123 S.O2    1  UNL1        0.0106
     17 C         141.6146  141.6896  156.4109 C.3     1  UNL1        0.1816
     18 O         142.9962  140.5126  157.5090 O.2     1  UNL1       -0.1686
     19 O         141.2476  140.0503  155.1155 O.2     1  UNL1       -0.1686
     20 C         141.6992  140.3419  163.3848 C.3     1  UNL1        0.0240
     21 C         141.1164  138.9834  163.6392 C.3     1  UNL1        0.1151
     22 C         140.5336  137.6249  163.8936 C.3     1  UNL1        0.0240
     23 S         141.2260  139.2132  165.1174 S.O2    1  UNL1        0.0054
     24 O         142.4050  138.2876  165.1739 O.2     1  UNL1       -0.1687
     25 O         140.0471  140.1388  165.0609 O.2     1  UNL1       -0.1687
     26 C         141.3356  139.4431  166.5957 C.ar    1  UNL1        0.1055
     27 C         142.6655  139.3170  167.2777 C.ar    1  UNL1        0.0183
     28 C         142.7751  139.5468  168.7559 C.ar    1  UNL1        0.0013
     29 C         141.5546  139.9028  169.5521 C.ar    1  UNL1        0.0039
     30 C         140.2247  140.0289  168.8700 C.ar    1  UNL1        0.0727
     31 C         140.1151  139.7990  167.3918 C.ar    1  UNL1        0.0222
     32 C         139.0042  140.3848  169.6661 C.3     1  UNL1        0.4186
     33 F         137.7838  140.7407  170.4623 F       1  UNL1       -0.1659
     34 F         139.8461  141.2229  170.5820 F       1  UNL1       -0.1659
     35 F         138.1623  139.5467  168.7503 F       1  UNL1       -0.1659
@<TRIPOS>BOND
     1    20    21    1
     2    21    22    1
     3    21     1    1
     4     1     2    1
     5     2     3    1
     6     3     4    1
     7     4     5   am
     8     5     6    2
     9     5     9    1
    10     9    10   ar
    11    10    11   ar
    12    11    12    1
    13    11    13   ar
    14    13    14   ar
    15    14    15   ar
    16    15    16    1
    17    16    17    1
    18    16    18    2
    19    16    19    2
    20     4     7    1
    21     7     8    1
    22    21    23    1
    23    23    24    2
    24    23    25    2
    25    23    26    1
    26    26    27   ar
    27    27    28   ar
    28    28    29   ar
    29    29    30   ar
    30    30    32    1
    31    32    33    1
    32    32    34    1
    33    32    35    1
    34    30    31   ar
    35     8     1    1
    36    31    26   ar
    37    15     9   ar
@<TRIPOS>MOLECULE
*****
 35 37 0 0 0
SMALL
GASTEIGER

@<TRIPOS>ATOM
      1 C         140.5555  139.2313  158.6095 C.3     1  UNL1        0.0241
      2 C         141.5377  139.8496  159.5598 C.3     1  UNL1        0.0232
      3 C         141.1173  140.9942  160.4333 C.3     1  UNL1        0.0938
      4 N         139.7147  141.5205  160.3566 N.am    1  UNL1       -0.2760
      5 C         139.2943  142.6652  161.2302 C.2     1  UNL1        0.2503
      6 O         137.8918  143.1914  161.1535 O.2     1  UNL1       -0.2699
      7 C         138.7326  140.9022  159.4064 C.3     1  UNL1        0.0938
      8 C         139.1530  139.7576  158.5328 C.3     1  UNL1        0.0232
      9 C         140.2765  143.2835  162.1805 C.ar    1  UNL1        0.0729
     10 C         140.4412  142.7200  163.5608 C.ar    1  UNL1        0.0354
     11 C         141.4234  143.3384  164.5111 C.ar    1  UNL1        0.1404
     12 F         141.5881  142.7749  165.8914 F       1  UNL1       -0.2042
     13 C         142.2409  144.5202  164.0810 C.ar    1  UNL1        0.0310
     14 C         142.0761  145.0837  162.7006 C.ar    1  UNL1        0.0208
     15 C         141.0940  144.4654  161.7504 C.ar    1  UNL1        0.1102
     16 S         140.9293  145.0289  160.3701 S.O2    1  UNL1        0.0106
     17 C         140.7645  145.5924  158.9897 C.3     1  UNL1        0.1816
     18 O         139.7244  145.7966  160.8272 O.2     1  UNL1       -0.1686
     19 O         142.1341  144.2612  159.9129 O.2     1  UNL1       -0.1686
     20 C         142.3304  138.0923  158.3803 C.3     1  UNL1        0.0240
     21 C         140.9759  138.0867  157.7359 C.3     1  UNL1        0.1151
     22 C         139.6214  138.0810  157.0915 C.3     1  UNL1        0.0240
     23 S         141.3963  136.9421  156.8624 S.O2    1  UNL1        0.0054
     24 O         142.7122  136.8781  157.5795 O.2     1  UNL1       -0.1687
     25 O         140.0804  137.0060  156.1453 O.2     1  UNL1       -0.1687
     26 C         141.8167  135.7974  155.9888 C.ar    1  UNL1        0.1055
     27 C         141.1959  135.6199  154.6349 C.ar    1  UNL1        0.0183
     28 C         141.6163  134.4753  153.7613 C.ar    1  UNL1        0.0013
     29 C         142.6575  133.5082  154.2417 C.ar    1  UNL1        0.0039
     30 C         143.2782  133.6857  155.5956 C.ar    1  UNL1        0.0727
     31 C         142.8578  134.8303  156.4691 C.ar    1  UNL1        0.0222
     32 C         144.3194  132.7187  156.0760 C.3     1  UNL1        0.4186
     33 F         145.3605  131.7516  156.5563 F       1  UNL1       -0.1659
     34 F         144.0747  131.8574  154.8725 F       1  UNL1       -0.1659
     35 F         144.5641  133.5799  157.2795 F       1  UNL1       -0.1659
@<TRIPOS>BOND
     1    20    21    1
     2    21    22    1
     3    21     1    1
     4     1     2    1
     5     2     3    1
     6     3     4    1
     7     4     5   am
     8     5     6    2
     9     5     9    1
    10     9    10   ar
    11    10    11   ar
    12    11    12    1
    13    11    13   ar
    14    13    14   ar
    15    14    15   ar
    16    15    16    1
    17    16    17    1
    18    16    18    2
    19    16    19    2
    20     4     7    1
    21     7     8    1
    22    21    23    1
    23    23    24    2
    24    23    25    2
    25    23    26    1
    26    26    27   ar
    27    27    28   ar
    28    28    29   ar
    29    29    30   ar
    30    30    32    1
    31    32    33    1
    32    32    34    1
    33    32    35    1
    34    30    31   ar
    35     8     1    1
    36    31    26   ar
    37    15     9   ar
@<TRIPOS>MOLECULE
*****
 35 37 0 0 0
SMALL
GASTEIGER

@<TRIPOS>ATOM
      1 C         141.3511  143.5693  162.9150 C.3     1  UNL1        0.0241
      2 C         140.3377  143.0154  163.8721 C.3     1  UNL1        0.0232
      3 C         140.7404  142.6734  165.2759 C.3     1  UNL1        0.0938
      4 N         142.1565  142.8853  165.7227 N.am    1  UNL1       -0.2760
      5 C         142.5592  142.5433  167.1266 C.2     1  UNL1        0.2503
      6 O         143.9754  142.7553  167.5733 O.2     1  UNL1       -0.2699
      7 C         143.1700  143.4392  164.7656 C.3     1  UNL1        0.0938
      8 C         142.7673  143.7812  163.3617 C.3     1  UNL1        0.0232
      9 C         141.5458  141.9894  168.0837 C.ar    1  UNL1        0.0729
     10 C         140.8241  142.9068  169.0258 C.ar    1  UNL1        0.0354
     11 C         139.8106  142.3528  169.9830 C.ar    1  UNL1        0.1404
     12 F         139.0889  143.2701  170.9251 F       1  UNL1       -0.2042
     13 C         139.5189  140.8815  169.9979 C.ar    1  UNL1        0.0310
     14 C         140.2406  139.9642  169.0558 C.ar    1  UNL1        0.0208
     15 C         141.2540  140.5181  168.0987 C.ar    1  UNL1        0.1102
     16 S         141.9757  139.6008  167.1565 S.O2    1  UNL1        0.0106
     17 C         142.6974  138.6834  166.2143 C.3     1  UNL1        0.1816
     18 O         140.8317  139.6929  166.1906 O.2     1  UNL1       -0.1686
     19 O         143.1196  139.5087  168.1224 O.2     1  UNL1       -0.1686
     20 C         142.1797  143.2298  160.9919 C.3     1  UNL1        0.0240
     21 C         140.9484  143.9113  161.5110 C.3     1  UNL1        0.1151
     22 C         139.7171  144.5927  162.0301 C.3     1  UNL1        0.0240
     23 S         140.5458  144.2532  160.1072 S.O2    1  UNL1        0.0054
     24 O         139.1837  143.6770  160.3575 O.2     1  UNL1       -0.1687
     25 O         141.9079  144.8294  159.8569 O.2     1  UNL1       -0.1687
     26 C         140.1432  144.5952  158.7032 C.ar    1  UNL1        0.1055
     27 C         140.5973  145.8845  158.0857 C.ar    1  UNL1        0.0183
     28 C         140.1947  146.2265  156.6818 C.ar    1  UNL1        0.0013
     29 C         139.3379  145.2791  155.8954 C.ar    1  UNL1        0.0039
     30 C         138.8838  143.9897  156.5129 C.ar    1  UNL1        0.0727
     31 C         139.2864  143.6478  157.9168 C.ar    1  UNL1        0.0222
     32 C         138.0270  143.0423  155.7265 C.3     1  UNL1        0.4186
     33 F         137.1703  142.0949  154.9401 F       1  UNL1       -0.1659
     34 F         139.1528  142.0516  155.6936 F       1  UNL1       -0.1659
     35 F         136.9013  144.0331  155.7594 F       1  UNL1       -0.1659
@<TRIPOS>BOND
     1    20    21    1
     2    21    22    1
     3    21     1    1
     4     1     2    1
     5     2     3    1
     6     3     4    1
     7     4     5   am
     8     5     6    2
     9     5     9    1
    10     9    10   ar
    11    10    11   ar
    12    11    12    1
    13    11    13   ar
    14    13    14   ar
    15    14    15   ar
    16    15    16    1
    17    16    17    1
    18    16    18    2
    19    16    19    2
    20     4     7    1
    21     7     8    1
    22    21    23    1
    23    23    24    2
    24    23    25    2
    25    23    26    1
    26    26    27   ar
    27    27    28   ar
    28    28    29   ar
    29    29    30   ar
    30    30    32    1
    31    32    33    1
    32    32    34    1
    33    32    35    1
    34    30    31   ar
    35     8     1    1
    36    31    26   ar
    37    15     9   ar
@<TRIPOS>MOLECULE
*****
 35 37 0 0 0
SMALL
GASTEIGER

@<TRIPOS>ATOM
      1 C         141.8661  143.4974  160.7081 C.3     1  UNL1        0.0241
      2 C         140.8484  143.3435  161.7992 C.3     1  UNL1        0.0232
      3 C         141.2207  142.6593  163.0810 C.3     1  UNL1        0.0938
      4 N         142.6108  142.1289  163.2718 N.am    1  UNL1       -0.2760
      5 C         142.9831  141.4446  164.5537 C.2     1  UNL1        0.2503
      6 O         144.3732  140.9142  164.7444 O.2     1  UNL1       -0.2699
      7 C         143.6285  142.2828  162.1807 C.3     1  UNL1        0.0938
      8 C         143.2562  142.9671  160.8989 C.3     1  UNL1        0.0232
      9 C         141.9654  141.2907  165.6448 C.ar    1  UNL1        0.0729
     10 C         141.7249  142.4136  166.6098 C.ar    1  UNL1        0.0354
     11 C         140.7071  142.2596  167.7010 C.ar    1  UNL1        0.1404
     12 F         140.4665  143.3825  168.6660 F       1  UNL1       -0.2042
     13 C         139.9299  140.9829  167.8270 C.ar    1  UNL1        0.0310
     14 C         140.1704  139.8601  166.8619 C.ar    1  UNL1        0.0208
     15 C         141.1882  140.0140  165.7708 C.ar    1  UNL1        0.1102
     16 S         141.4287  138.8911  164.8057 S.O2    1  UNL1        0.0106
     17 C         141.6692  137.7683  163.8407 C.3     1  UNL1        0.1816
     18 O         140.3410  139.4205  163.9188 O.2     1  UNL1       -0.1686
     19 O         142.5164  138.3618  165.6927 O.2     1  UNL1       -0.1686
     20 C         140.5341  145.0594  160.1736 C.3     1  UNL1        0.0240
     21 C         141.4937  144.1817  159.4262 C.3     1  UNL1        0.1151
     22 C         142.4534  143.3040  158.6789 C.3     1  UNL1        0.0240
     23 S         141.1214  144.8660  158.1444 S.O2    1  UNL1        0.0054
     24 O         140.0264  143.8640  157.9276 O.2     1  UNL1       -0.1687
     25 O         142.2164  145.8680  158.3613 O.2     1  UNL1       -0.1687
     26 C         140.7491  145.5504  156.8626 C.ar    1  UNL1        0.1055
     27 C         141.1623  144.9573  155.5483 C.ar    1  UNL1        0.0183
     28 C         140.7900  145.6416  154.2665 C.ar    1  UNL1        0.0013
     29 C         140.0044  146.9190  154.2990 C.ar    1  UNL1        0.0039
     30 C         139.5912  147.5121  155.6133 C.ar    1  UNL1        0.0727
     31 C         139.9635  146.8278  156.8951 C.ar    1  UNL1        0.0222
     32 C         138.8056  148.7895  155.6459 C.3     1  UNL1        0.4186
     33 F         138.0200  150.0669  155.6784 F       1  UNL1       -0.1659
     34 F         138.4152  148.5132  157.0676 F       1  UNL1       -0.1659
     35 F         139.1960  149.0658  154.2241 F       1  UNL1       -0.1659
@<TRIPOS>BOND
     1    20    21    1
     2    21    22    1
     3    21     1    1
     4     1     2    1
     5     2     3    1
     6     3     4    1
     7     4     5   am
     8     5     6    2
     9     5     9    1
    10     9    10   ar
    11    10    11   ar
    12    11    12    1
    13    11    13   ar
    14    13    14   ar
    15    14    15   ar
    16    15    16    1
    17    16    17    1
    18    16    18    2
    19    16    19    2
    20     4     7    1
    21     7     8    1
    22    21    23    1
    23    23    24    2
    24    23    25    2
    25    23    26    1
    26    26    27   ar
    27    27    28   ar
    28    28    29   ar
    29    29    30   ar
    30    30    32    1
    31    32    33    1
    32    32    34    1
    33    32    35    1
    34    30    31   ar
    35     8     1    1
    36    31    26   ar
    37    15     9   ar
@<TRIPOS>MOLECULE
*****
 35 37 0 0 0
SMALL
GASTEIGER

@<TRIPOS>ATOM
      1 C         141.0612  143.2247  162.7999 C.3     1  UNL1        0.0241
      2 C         140.1126  142.6756  163.8240 C.3     1  UNL1        0.0232
      3 C         140.5800  142.4416  165.2299 C.3     1  UNL1        0.0938
      4 N         141.9959  142.7566  165.6118 N.am    1  UNL1       -0.2760
      5 C         142.4633  142.5225  167.0179 C.2     1  UNL1        0.2503
      6 O         143.8793  142.8375  167.3998 O.2     1  UNL1       -0.2699
      7 C         142.9445  143.3056  164.5878 C.3     1  UNL1        0.0938
      8 C         142.4771  143.5397  163.1819 C.3     1  UNL1        0.0232
      9 C         141.5147  141.9735  168.0419 C.ar    1  UNL1        0.0729
     10 C         140.7874  142.9046  168.9661 C.ar    1  UNL1        0.0354
     11 C         139.8388  142.3555  169.9901 C.ar    1  UNL1        0.1404
     12 F         139.1115  143.2866  170.9143 F       1  UNL1       -0.2042
     13 C         139.6175  140.8753  170.0900 C.ar    1  UNL1        0.0310
     14 C         140.3448  139.9442  169.1659 C.ar    1  UNL1        0.0208
     15 C         141.2934  140.4932  168.1419 C.ar    1  UNL1        0.1102
     16 S         142.0207  139.5621  167.2177 S.O2    1  UNL1        0.0106
     17 C         142.7480  138.6309  166.2936 C.3     1  UNL1        0.1816
     18 O         143.2008  139.5649  168.1436 O.2     1  UNL1       -0.1686
     19 O         140.8406  139.5592  166.2918 O.2     1  UNL1       -0.1686
     20 C         142.0154  143.6419  160.9519 C.3     1  UNL1        0.0240
     21 C         140.5938  143.4587  161.3939 C.3     1  UNL1        0.1151
     22 C         139.1722  143.2756  161.8359 C.3     1  UNL1        0.0240
     23 S         140.1265  143.6928  159.9879 S.O2    1  UNL1        0.0054
     24 O         141.5202  144.0780  159.5889 O.2     1  UNL1       -0.1687
     25 O         138.7329  143.3076  160.3870 O.2     1  UNL1       -0.1687
     26 C         139.6592  143.9268  158.5819 C.ar    1  UNL1        0.1055
     27 C         138.7760  142.9193  157.9076 C.ar    1  UNL1        0.0183
     28 C         138.3087  143.1534  156.5016 C.ar    1  UNL1        0.0013
     29 C         138.7246  144.3950  155.7700 C.ar    1  UNL1        0.0039
     30 C         139.6078  145.4026  156.4443 C.ar    1  UNL1        0.0727
     31 C         140.0751  145.1685  157.8502 C.ar    1  UNL1        0.0222
     32 C         140.0237  146.6442  155.7126 C.3     1  UNL1        0.4186
     33 F         140.4395  147.8859  154.9809 F       1  UNL1       -0.1659
     34 F         138.6203  146.8198  155.2128 F       1  UNL1       -0.1659
     35 F         141.4270  146.4687  156.2124 F       1  UNL1       -0.1659
@<TRIPOS>BOND
     1    20    21    1
     2    21    22    1
     3    21     1    1
     4     1     2    1
     5     2     3    1
     6     3     4    1
     7     4     5   am
     8     5     6    2
     9     5     9    1
    10     9    10   ar
    11    10    11   ar
    12    11    12    1
    13    11    13   ar
    14    13    14   ar
    15    14    15   ar
    16    15    16    1
    17    16    17    1
    18    16    18    2
    19    16    19    2
    20     4     7    1
    21     7     8    1
    22    21    23    1
    23    23    24    2
    24    23    25    2
    25    23    26    1
    26    26    27   ar
    27    27    28   ar
    28    28    29   ar
    29    29    30   ar
    30    30    32    1
    31    32    33    1
    32    32    34    1
    33    32    35    1
    34    30    31   ar
    35     8     1    1
    36    31    26   ar
    37    15     9   ar
