@<TRIPOS>MOLECULE
*****
 34 38 0 0 0
SMALL
GASTEIGER

@<TRIPOS>ATOM
      1 N         140.6234  144.8845  161.5738 N.3     1  UNL1       -0.2712
      2 C         139.6036  145.5798  162.4263 C.3     1  UNL1        0.0738
      3 C         139.5520  144.8789  163.7515 C.3     1  UNL1        0.0372
      4 C         138.8899  144.8755  165.0974 C.3     1  UNL1        0.0245
      5 C         139.4684  143.7450  165.8958 C.3     1  UNL1        0.0909
      6 N         140.4882  143.0498  165.0432 N.pl3   1  UNL1       -0.3077
      7 C         140.5398  143.7506  163.7180 C.3     1  UNL1        0.0901
      8 C         141.2019  143.7540  162.3721 C.3     1  UNL1        0.0921
      9 C         141.3116  141.8622  165.4453 C.ar    1  UNL1        0.0478
     10 C         141.0458  141.1724  166.7504 C.ar    1  UNL1        0.0145
     11 C         141.8693  139.9849  167.1525 C.ar    1  UNL1        0.0051
     12 C         142.9586  139.4872  166.2494 C.ar    1  UNL1        0.0715
     13 C         143.2245  140.1770  164.9441 C.ar    1  UNL1        0.0051
     14 C         142.4010  141.3645  164.5421 C.ar    1  UNL1        0.0145
     15 C         143.7821  138.2996  166.6514 C.3     1  UNL1        0.4186
     16 F         144.6056  137.1121  167.0535 F       1  UNL1       -0.1659
     17 F         143.1025  138.2811  167.9885 F       1  UNL1       -0.1659
     18 F         144.4617  138.3182  165.3144 F       1  UNL1       -0.1659
     19 C         140.9986  145.2548  160.1695 C.3     1  UNL1        0.0731
     20 C         140.1629  144.7771  159.0191 C.3     1  UNL1        0.0294
     21 C         140.3151  143.3730  158.5135 C.3     1  UNL1        0.0666
     22 S         139.2105  142.3788  158.7168 S.3     1  UNL1       -0.0756
     23 C         138.3448  140.9967  162.2391 C.ar    1  UNL1        0.1699
     24 N         137.5445  142.2653  162.2207 N.ar    1  UNL1       -0.1281
     25 N         137.7714  142.9375  160.8990 N.ar    1  UNL1       -0.1221
     26 C         138.7119  142.0843  160.1005 C.ar    1  UNL1        0.1932
     27 N         139.0663  140.8849  160.9287 N.ar    1  UNL1       -0.2884
     28 C         139.9815  139.7694  160.5185 C.3     1  UNL1        0.1340
     29 C         138.0486  138.8538  167.0558 C.3     1  UNL1        0.1538
     30 N         138.2756  139.0279  165.5833 N.ar    1  UNL1       -0.2472
     31 C         138.0640  140.2906  164.8018 C.ar    1  UNL1        0.0997
     32 C         138.4118  140.0128  163.3693 C.ar    1  UNL1        0.0755
     33 C         138.8384  138.5785  163.2655 C.ar    1  UNL1        0.1247
     34 N         138.7542  137.9698  164.6339 N.ar    1  UNL1       -0.1675
@<TRIPOS>BOND
     1    29    30    1
     2    30    31   ar
     3    31    32   ar
     4    32    23    1
     5    23    24   ar
     6    24    25   ar
     7    25    26   ar
     8    26    22    1
     9    22    21    1
    10    21    20    1
    11    20    19    1
    12    19     1    1
    13     1     2    1
    14     2     3    1
    15     3     4    1
    16     4     5    1
    17     5     6    1
    18     6     9    1
    19     9    10   ar
    20    10    11   ar
    21    11    12   ar
    22    12    15    1
    23    15    16    1
    24    15    17    1
    25    15    18    1
    26    12    13   ar
    27    13    14   ar
    28     6     7    1
    29     7     8    1
    30    26    27   ar
    31    27    28    1
    32    32    33   ar
    33    33    34   ar
    34    34    30   ar
    35    27    23   ar
    36     8     1    1
    37     7     3    1
    38    14     9   ar
@<TRIPOS>MOLECULE
*****
 34 38 0 0 0
SMALL
GASTEIGER

@<TRIPOS>ATOM
      1 N         138.2170  142.8393  163.1859 N.3     1  UNL1       -0.2712
      2 C         137.7803  141.6332  162.4084 C.3     1  UNL1        0.0738
      3 C         138.2936  140.4145  163.1166 C.3     1  UNL1        0.0372
      4 C         138.3409  138.9159  163.0738 C.3     1  UNL1        0.0245
      5 C         139.1240  138.4426  164.2624 C.3     1  UNL1        0.0909
      6 N         139.5607  139.6489  165.0399 N.pl3   1  UNL1       -0.3077
      7 C         139.0474  140.8675  164.3317 C.3     1  UNL1        0.0901
      8 C         139.0001  142.3662  164.3745 C.3     1  UNL1        0.0921
      9 C         140.3687  139.6383  166.3036 C.ar    1  UNL1        0.0478
     10 C         139.7327  140.0319  167.6038 C.ar    1  UNL1        0.0145
     11 C         140.5407  140.0213  168.8675 C.ar    1  UNL1        0.0051
     12 C         141.9848  139.6171  168.8310 C.ar    1  UNL1        0.0715
     13 C         142.6209  139.2235  167.5308 C.ar    1  UNL1        0.0051
     14 C         141.8128  139.2341  166.2671 C.ar    1  UNL1        0.0145
     15 C         142.7928  139.6065  170.0948 C.3     1  UNL1        0.4186
     16 F         143.6008  139.5959  171.3585 F       1  UNL1       -0.1659
     17 F         142.8882  141.1027  170.0463 F       1  UNL1       -0.1659
     18 F         142.6974  138.1103  170.1432 F       1  UNL1       -0.1659
     19 C         137.9223  144.2679  162.8361 C.3     1  UNL1        0.0731
     20 C         139.0033  145.3030  162.9365 C.3     1  UNL1        0.0294
     21 C         139.4464  146.0461  161.7111 C.3     1  UNL1        0.0666
     22 S         140.4712  145.4422  160.7973 S.3     1  UNL1       -0.0756
     23 C         141.5698  141.7777  161.4531 C.ar    1  UNL1        0.1699
     24 N         140.6482  141.5991  160.2832 N.ar    1  UNL1       -0.1281
     25 N         140.1245  142.9500  159.8951 N.ar    1  UNL1       -0.1221
     26 C         140.7224  143.9636  160.8252 C.ar    1  UNL1        0.1932
     27 N         141.6157  143.2392  161.7881 N.ar    1  UNL1       -0.2884
     28 C         142.4145  143.8660  162.8922 C.3     1  UNL1        0.1340
     29 C         145.1035  139.2277  164.4350 C.3     1  UNL1        0.1538
     30 N         143.9390  139.5144  163.5340 N.ar    1  UNL1       -0.2472
     31 C         143.5259  140.8655  163.0301 C.ar    1  UNL1        0.0997
     32 C         142.3148  140.6865  162.1634 C.ar    1  UNL1        0.0755
     33 C         141.9794  139.2248  162.1315 C.ar    1  UNL1        0.1247
     34 N         142.9833  138.5005  162.9786 N.ar    1  UNL1       -0.1675
@<TRIPOS>BOND
     1    29    30    1
     2    30    31   ar
     3    31    32   ar
     4    32    23    1
     5    23    24   ar
     6    24    25   ar
     7    25    26   ar
     8    26    22    1
     9    22    21    1
    10    21    20    1
    11    20    19    1
    12    19     1    1
    13     1     2    1
    14     2     3    1
    15     3     4    1
    16     4     5    1
    17     5     6    1
    18     6     9    1
    19     9    10   ar
    20    10    11   ar
    21    11    12   ar
    22    12    15    1
    23    15    16    1
    24    15    17    1
    25    15    18    1
    26    12    13   ar
    27    13    14   ar
    28     6     7    1
    29     7     8    1
    30    26    27   ar
    31    27    28    1
    32    32    33   ar
    33    33    34   ar
    34    34    30   ar
    35    27    23   ar
    36     8     1    1
    37     7     3    1
    38    14     9   ar
@<TRIPOS>MOLECULE
*****
 34 38 0 0 0
SMALL
GASTEIGER

@<TRIPOS>ATOM
      1 N         141.9413  143.5003  160.3838 N.3     1  UNL1       -0.2712
      2 C         141.3622  144.8529  160.6752 C.3     1  UNL1        0.0738
      3 C         140.3919  144.7070  161.8097 C.3     1  UNL1        0.0372
      4 C         139.4342  145.4528  162.6911 C.3     1  UNL1        0.0245
      5 C         138.8218  144.4710  163.6455 C.3     1  UNL1        0.0909
      6 N         139.4010  143.1183  163.3541 N.pl3   1  UNL1       -0.3077
      7 C         140.3713  143.2642  162.2195 C.3     1  UNL1        0.0901
      8 C         141.3289  142.5184  161.3382 C.3     1  UNL1        0.0921
      9 C         139.0682  141.8436  164.0712 C.ar    1  UNL1        0.0478
     10 C         139.3430  141.7158  165.5403 C.ar    1  UNL1        0.0145
     11 C         139.0103  140.4411  166.2575 C.ar    1  UNL1        0.0051
     12 C         138.4027  139.2941  165.5056 C.ar    1  UNL1        0.0715
     13 C         138.1279  139.4218  164.0365 C.ar    1  UNL1        0.0051
     14 C         138.4606  140.6966  163.3193 C.ar    1  UNL1        0.0145
     15 C         138.0700  138.0194  166.2228 C.3     1  UNL1        0.4186
     16 F         137.7372  136.7447  166.9400 F       1  UNL1       -0.1659
     17 F         137.4366  138.8079  167.3305 F       1  UNL1       -0.1659
     18 F         138.7034  137.2308  165.1151 F       1  UNL1       -0.1659
     19 C         142.9548  143.1848  159.3240 C.3     1  UNL1        0.0731
     20 C         143.9945  142.1319  159.5701 C.3     1  UNL1        0.0294
     21 C         143.6074  140.6827  159.5770 C.3     1  UNL1        0.0666
     22 S         144.0867  139.7837  160.6779 S.3     1  UNL1       -0.0756
     23 C         143.8511  140.8180  164.4115 C.ar    1  UNL1        0.1699
     24 N         145.1356  141.4793  164.0080 N.ar    1  UNL1       -0.1281
     25 N         145.3802  141.1723  162.5603 N.ar    1  UNL1       -0.1221
     26 C         144.2468  140.3213  162.0690 C.ar    1  UNL1        0.1932
     27 N         143.3018  140.1023  163.2131 N.ar    1  UNL1       -0.2884
     28 C         142.0307  139.3072  163.1669 C.3     1  UNL1        0.1340
     29 C         141.8430  142.6024  168.9573 C.3     1  UNL1        0.1538
     30 N         142.3027  141.6845  167.8636 N.ar    1  UNL1       -0.2472
     31 C         142.9218  142.1033  166.5631 C.ar    1  UNL1        0.0997
     32 C         143.2257  140.8643  165.7742 C.ar    1  UNL1        0.0755
     33 C         142.7944  139.6797  166.5870 C.ar    1  UNL1        0.1247
     34 N         142.2240  140.1867  167.8784 N.ar    1  UNL1       -0.1675
@<TRIPOS>BOND
     1    29    30    1
     2    30    31   ar
     3    31    32   ar
     4    32    23    1
     5    23    24   ar
     6    24    25   ar
     7    25    26   ar
     8    26    22    1
     9    22    21    1
    10    21    20    1
    11    20    19    1
    12    19     1    1
    13     1     2    1
    14     2     3    1
    15     3     4    1
    16     4     5    1
    17     5     6    1
    18     6     9    1
    19     9    10   ar
    20    10    11   ar
    21    11    12   ar
    22    12    15    1
    23    15    16    1
    24    15    17    1
    25    15    18    1
    26    12    13   ar
    27    13    14   ar
    28     6     7    1
    29     7     8    1
    30    26    27   ar
    31    27    28    1
    32    32    33   ar
    33    33    34   ar
    34    34    30   ar
    35    27    23   ar
    36     8     1    1
    37     7     3    1
    38    14     9   ar
@<TRIPOS>MOLECULE
*****
 34 38 0 0 0
SMALL
GASTEIGER

@<TRIPOS>ATOM
      1 N         142.2897  138.1138  162.5756 N.3     1  UNL1       -0.2712
      2 C         140.8928  137.5673  162.5755 C.3     1  UNL1        0.0738
      3 C         140.2058  138.0511  163.8181 C.3     1  UNL1        0.0372
      4 C         138.9178  138.0123  164.5860 C.3     1  UNL1        0.0245
      5 C         139.0941  138.8338  165.8287 C.3     1  UNL1        0.0909
      6 N         140.4911  139.3803  165.8287 N.pl3   1  UNL1       -0.3077
      7 C         141.1781  138.8965  164.5861 C.3     1  UNL1        0.0901
      8 C         142.4660  138.9353  163.8182 C.3     1  UNL1        0.0921
      9 C         141.0950  140.2566  166.8857 C.ar    1  UNL1        0.0478
     10 C         140.5525  141.6359  167.1165 C.ar    1  UNL1        0.0145
     11 C         141.1563  142.5122  168.1735 C.ar    1  UNL1        0.0051
     12 C         142.3027  142.0093  168.9999 C.ar    1  UNL1        0.0715
     13 C         142.8452  140.6299  168.7692 C.ar    1  UNL1        0.0051
     14 C         142.2414  139.7536  167.7121 C.ar    1  UNL1        0.0145
     15 C         142.9066  142.8856  170.0569 C.3     1  UNL1        0.4186
     16 F         143.5104  143.7620  171.1140 F       1  UNL1       -0.1659
     17 F         144.1365  142.0271  170.0660 F       1  UNL1       -0.1659
     18 F         141.6766  143.7442  170.0478 F       1  UNL1       -0.1659
     19 C         143.3280  137.8799  161.5186 C.3     1  UNL1        0.0731
     20 C         142.9549  137.9672  160.0684 C.3     1  UNL1        0.0294
     21 C         143.4377  139.1191  159.2377 C.3     1  UNL1        0.0666
     22 S         142.6767  140.4117  159.2335 S.3     1  UNL1       -0.0756
     23 C         141.2217  142.1060  162.4081 C.ar    1  UNL1        0.1699
     24 N         142.6927  142.3103  162.6188 N.ar    1  UNL1       -0.1281
     25 N         143.4168  141.7005  161.4553 N.ar    1  UNL1       -0.1221
     26 C         142.3933  141.1193  160.5254 C.ar    1  UNL1        0.1932
     27 N         141.0366  141.3699  161.1142 N.ar    1  UNL1       -0.2884
     28 C         139.7252  140.9569  160.5145 C.3     1  UNL1        0.1340
     29 C         138.3383  145.0358  165.7221 C.3     1  UNL1        0.1538
     30 N         138.8025  143.9051  164.8527 N.ar    1  UNL1       -0.2472
     31 C         140.0641  143.8769  164.0417 C.ar    1  UNL1        0.0997
     32 C         140.1278  142.5584  163.3294 C.ar    1  UNL1        0.0755
     33 C         138.9056  141.7716  163.7000 C.ar    1  UNL1        0.1247
     34 N         138.0866  142.6040  164.6415 N.ar    1  UNL1       -0.1675
@<TRIPOS>BOND
     1    29    30    1
     2    30    31   ar
     3    31    32   ar
     4    32    23    1
     5    23    24   ar
     6    24    25   ar
     7    25    26   ar
     8    26    22    1
     9    22    21    1
    10    21    20    1
    11    20    19    1
    12    19     1    1
    13     1     2    1
    14     2     3    1
    15     3     4    1
    16     4     5    1
    17     5     6    1
    18     6     9    1
    19     9    10   ar
    20    10    11   ar
    21    11    12   ar
    22    12    15    1
    23    15    16    1
    24    15    17    1
    25    15    18    1
    26    12    13   ar
    27    13    14   ar
    28     6     7    1
    29     7     8    1
    30    26    27   ar
    31    27    28    1
    32    32    33   ar
    33    33    34   ar
    34    34    30   ar
    35    27    23   ar
    36     8     1    1
    37     7     3    1
    38    14     9   ar
@<TRIPOS>MOLECULE
*****
 34 38 0 0 0
SMALL
GASTEIGER

@<TRIPOS>ATOM
      1 N         142.2916  138.1500  162.6481 N.3     1  UNL1       -0.2712
      2 C         140.9112  137.5638  162.6743 C.3     1  UNL1        0.0738
      3 C         140.2293  138.0396  163.9228 C.3     1  UNL1        0.0372
      4 C         138.9547  137.9713  164.7106 C.3     1  UNL1        0.0245
      5 C         139.1258  138.8094  165.9428 C.3     1  UNL1        0.0909
      6 N         140.5064  139.3957  165.9165 N.pl3   1  UNL1       -0.3077
      7 C         141.1883  138.9199  164.6681 C.3     1  UNL1        0.0901
      8 C         142.4629  138.9881  163.8802 C.3     1  UNL1        0.0921
      9 C         141.1005  140.2991  166.9561 C.ar    1  UNL1        0.0478
     10 C         140.4379  140.4402  168.2943 C.ar    1  UNL1        0.0145
     11 C         141.0321  141.3436  169.3340 C.ar    1  UNL1        0.0051
     12 C         142.2889  142.1059  169.0353 C.ar    1  UNL1        0.0715
     13 C         142.9516  141.9649  167.6970 C.ar    1  UNL1        0.0051
     14 C         142.3574  141.0614  166.6574 C.ar    1  UNL1        0.0145
     15 C         142.8831  143.0094  170.0749 C.3     1  UNL1        0.4186
     16 F         143.4773  143.9128  171.1145 F       1  UNL1       -0.1659
     17 F         141.5977  143.7798  170.1400 F       1  UNL1       -0.1659
     18 F         144.1685  142.2389  170.0098 F       1  UNL1       -0.1659
     19 C         143.3203  137.9358  161.5775 C.3     1  UNL1        0.0731
     20 C         142.8970  137.4914  160.2088 C.3     1  UNL1        0.0294
     21 C         142.9181  138.4618  159.0652 C.3     1  UNL1        0.0666
     22 S         141.6369  139.0622  158.5673 S.3     1  UNL1       -0.0756
     23 C         139.4002  140.7242  161.2694 C.ar    1  UNL1        0.1699
     24 N         138.5200  139.5965  160.8179 N.ar    1  UNL1       -0.1281
     25 N         139.2508  138.8367  159.7508 N.ar    1  UNL1       -0.1221
     26 C         140.5826  139.4947  159.5427 C.ar    1  UNL1        0.1932
     27 N         140.6750  140.6612  160.4812 N.ar    1  UNL1       -0.2884
     28 C         141.8379  141.6000  160.6091 C.3     1  UNL1        0.1340
     29 C         139.5841  143.6525  165.6593 C.3     1  UNL1        0.1538
     30 N         139.1492  143.0828  164.3416 N.ar    1  UNL1       -0.2472
     31 C         139.8398  141.9885  163.5831 C.ar    1  UNL1        0.0997
     32 C         139.0646  141.7369  162.3238 C.ar    1  UNL1        0.0755
     33 C         137.8949  142.6757  162.3040 C.ar    1  UNL1        0.1247
     34 N         137.9472  143.5076  163.5511 N.ar    1  UNL1       -0.1675
@<TRIPOS>BOND
     1    29    30    1
     2    30    31   ar
     3    31    32   ar
     4    32    23    1
     5    23    24   ar
     6    24    25   ar
     7    25    26   ar
     8    26    22    1
     9    22    21    1
    10    21    20    1
    11    20    19    1
    12    19     1    1
    13     1     2    1
    14     2     3    1
    15     3     4    1
    16     4     5    1
    17     5     6    1
    18     6     9    1
    19     9    10   ar
    20    10    11   ar
    21    11    12   ar
    22    12    15    1
    23    15    16    1
    24    15    17    1
    25    15    18    1
    26    12    13   ar
    27    13    14   ar
    28     6     7    1
    29     7     8    1
    30    26    27   ar
    31    27    28    1
    32    32    33   ar
    33    33    34   ar
    34    34    30   ar
    35    27    23   ar
    36     8     1    1
    37     7     3    1
    38    14     9   ar
@<TRIPOS>MOLECULE
*****
 34 38 0 0 0
SMALL
GASTEIGER

@<TRIPOS>ATOM
      1 N         140.8981  143.6073  160.1253 N.3     1  UNL1       -0.2712
      2 C         141.5163  144.7383  160.8925 C.3     1  UNL1        0.0738
      3 C         141.3989  144.4253  162.3547 C.3     1  UNL1        0.0372
      4 C         141.7085  144.9309  163.7326 C.3     1  UNL1        0.0245
      5 C         141.2090  143.9190  164.7208 C.3     1  UNL1        0.0909
      6 N         140.5908  142.7879  163.9536 N.pl3   1  UNL1       -0.3077
      7 C         140.7082  143.1009  162.4913 C.3     1  UNL1        0.0901
      8 C         140.3986  142.5953  161.1135 C.3     1  UNL1        0.0921
      9 C         139.9650  141.5596  164.5449 C.ar    1  UNL1        0.0478
     10 C         139.5662  140.4190  163.6561 C.ar    1  UNL1        0.0145
     11 C         138.9404  139.1907  164.2474 C.ar    1  UNL1        0.0051
     12 C         138.7135  139.1029  165.7275 C.ar    1  UNL1        0.0715
     13 C         139.1124  140.2435  166.6164 C.ar    1  UNL1        0.0051
     14 C         139.7382  141.4718  166.0251 C.ar    1  UNL1        0.0145
     15 C         138.0878  137.8746  166.3188 C.3     1  UNL1        0.4186
     16 F         137.4621  136.6462  166.9101 F       1  UNL1       -0.1659
     17 F         138.8762  137.0177  165.3732 F       1  UNL1       -0.1659
     18 F         137.2994  138.7314  167.2645 F       1  UNL1       -0.1659
     19 C         140.7970  143.5060  158.6322 C.3     1  UNL1        0.0731
     20 C         141.9141  142.8874  157.8451 C.3     1  UNL1        0.0294
     21 C         143.3368  143.0916  158.2743 C.3     1  UNL1        0.0666
     22 S         144.0814  141.9818  158.9553 S.3     1  UNL1       -0.0756
     23 C         143.7287  141.0686  162.7113 C.ar    1  UNL1        0.1699
     24 N         144.4150  142.3995  162.7997 N.ar    1  UNL1       -0.1281
     25 N         144.6307  142.9035  161.4035 N.ar    1  UNL1       -0.1221
     26 C         144.0776  141.8842  160.4522 C.ar    1  UNL1        0.1932
     27 N         143.5202  140.7501  161.2603 N.ar    1  UNL1       -0.2884
     28 C         142.8687  139.5146  160.7136 C.3     1  UNL1        0.1340
     29 C         142.6877  139.4141  167.6164 C.3     1  UNL1        0.1538
     30 N         142.8438  139.4470  166.1249 N.ar    1  UNL1       -0.2472
     31 C         143.3212  140.6150  165.3138 C.ar    1  UNL1        0.0997
     32 C         143.3223  140.2074  163.8703 C.ar    1  UNL1        0.0755
     33 C         142.8456  138.7875  163.7891 C.ar    1  UNL1        0.1247
     34 N         142.5499  138.3175  165.1826 N.ar    1  UNL1       -0.1675
@<TRIPOS>BOND
     1    29    30    1
     2    30    31   ar
     3    31    32   ar
     4    32    23    1
     5    23    24   ar
     6    24    25   ar
     7    25    26   ar
     8    26    22    1
     9    22    21    1
    10    21    20    1
    11    20    19    1
    12    19     1    1
    13     1     2    1
    14     2     3    1
    15     3     4    1
    16     4     5    1
    17     5     6    1
    18     6     9    1
    19     9    10   ar
    20    10    11   ar
    21    11    12   ar
    22    12    15    1
    23    15    16    1
    24    15    17    1
    25    15    18    1
    26    12    13   ar
    27    13    14   ar
    28     6     7    1
    29     7     8    1
    30    26    27   ar
    31    27    28    1
    32    32    33   ar
    33    33    34   ar
    34    34    30   ar
    35    27    23   ar
    36     8     1    1
    37     7     3    1
    38    14     9   ar
@<TRIPOS>MOLECULE
*****
 34 38 0 0 0
SMALL
GASTEIGER

@<TRIPOS>ATOM
      1 N         143.1054  143.8226  162.7914 N.3     1  UNL1       -0.2712
      2 C         141.9914  144.6839  162.2745 C.3     1  UNL1        0.0738
      3 C         140.8259  144.5441  163.2083 C.3     1  UNL1        0.0372
      4 C         139.4171  144.9900  163.4660 C.3     1  UNL1        0.0245
      5 C         138.9400  144.3179  164.7193 C.3     1  UNL1        0.0909
      6 N         140.0541  143.4566  165.2362 N.pl3   1  UNL1       -0.3077
      7 C         141.2196  143.5964  164.3024 C.3     1  UNL1        0.0901
      8 C         142.6284  143.1505  164.0447 C.3     1  UNL1        0.0921
      9 C         140.0103  142.6050  166.4703 C.ar    1  UNL1        0.0478
     10 C         139.6890  141.1439  166.3622 C.ar    1  UNL1        0.0145
     11 C         139.6451  140.2923  167.5963 C.ar    1  UNL1        0.0051
     12 C         139.9227  140.9019  168.9384 C.ar    1  UNL1        0.0715
     13 C         140.2440  142.3632  169.0465 C.ar    1  UNL1        0.0051
     14 C         140.2878  143.2147  167.8125 C.ar    1  UNL1        0.0145
     15 C         139.8788  140.0504  170.1725 C.3     1  UNL1        0.4186
     16 F         139.8350  139.1988  171.4066 F       1  UNL1       -0.1659
     17 F         141.3553  139.8108  170.0596 F       1  UNL1       -0.1659
     18 F         138.4024  140.2899  170.2854 F       1  UNL1       -0.1659
     19 C         144.4589  143.6617  162.1650 C.3     1  UNL1        0.0731
     20 C         144.7565  142.4576  161.3216 C.3     1  UNL1        0.0294
     21 C         144.5853  142.5237  159.8328 C.3     1  UNL1        0.0666
     22 S         143.9900  141.3620  159.0940 S.3     1  UNL1       -0.0756
     23 C         141.8710  138.8826  161.1984 C.ar    1  UNL1        0.1699
     24 N         143.0569  138.0310  160.8545 N.ar    1  UNL1       -0.1281
     25 N         143.9951  138.8561  160.0243 N.ar    1  UNL1       -0.1221
     26 C         143.3889  140.2177  159.8551 C.ar    1  UNL1        0.1932
     27 N         142.0762  140.2341  160.5807 N.ar    1  UNL1       -0.2884
     28 C         141.1340  141.3977  160.6726 C.3     1  UNL1        0.1340
     29 C         138.8250  137.5074  165.2864 C.3     1  UNL1        0.1538
     30 N         139.2876  137.8253  163.8954 N.ar    1  UNL1       -0.2472
     31 C         140.6731  138.2434  163.5009 C.ar    1  UNL1        0.0997
     32 C         140.6876  138.4574  162.0163 C.ar    1  UNL1        0.0755
     33 C         139.3112  138.1717  161.4932 C.ar    1  UNL1        0.1247
     34 N         138.4459  137.7810  162.6546 N.ar    1  UNL1       -0.1675
@<TRIPOS>BOND
     1    29    30    1
     2    30    31   ar
     3    31    32   ar
     4    32    23    1
     5    23    24   ar
     6    24    25   ar
     7    25    26   ar
     8    26    22    1
     9    22    21    1
    10    21    20    1
    11    20    19    1
    12    19     1    1
    13     1     2    1
    14     2     3    1
    15     3     4    1
    16     4     5    1
    17     5     6    1
    18     6     9    1
    19     9    10   ar
    20    10    11   ar
    21    11    12   ar
    22    12    15    1
    23    15    16    1
    24    15    17    1
    25    15    18    1
    26    12    13   ar
    27    13    14   ar
    28     6     7    1
    29     7     8    1
    30    26    27   ar
    31    27    28    1
    32    32    33   ar
    33    33    34   ar
    34    34    30   ar
    35    27    23   ar
    36     8     1    1
    37     7     3    1
    38    14     9   ar
@<TRIPOS>MOLECULE
*****
 34 38 0 0 0
SMALL
GASTEIGER

@<TRIPOS>ATOM
      1 N         140.2455  142.0242  159.7947 N.3     1  UNL1       -0.2712
      2 C         139.9242  143.4606  159.5062 C.3     1  UNL1        0.0738
      3 C         140.1185  144.2422  160.7716 C.3     1  UNL1        0.0372
      4 C         140.0399  145.6131  161.3754 C.3     1  UNL1        0.0245
      5 C         140.4328  145.5070  162.8192 C.3     1  UNL1        0.0909
      6 N         140.7542  144.0704  163.1077 N.pl3   1  UNL1       -0.3077
      7 C         140.5599  143.2888  161.8423 C.3     1  UNL1        0.0901
      8 C         140.6384  141.9180  161.2385 C.3     1  UNL1        0.0921
      9 C         141.1928  143.5134  164.4296 C.ar    1  UNL1        0.0478
     10 C         140.2315  143.4671  165.5801 C.ar    1  UNL1        0.0145
     11 C         140.6701  142.9101  166.9019 C.ar    1  UNL1        0.0051
     12 C         142.0700  142.3993  167.0733 C.ar    1  UNL1        0.0715
     13 C         143.0313  142.4455  165.9227 C.ar    1  UNL1        0.0051
     14 C         142.5927  143.0026  164.6008 C.ar    1  UNL1        0.0145
     15 C         142.5086  141.8422  168.3951 C.3     1  UNL1        0.4186
     16 F         142.9472  141.2852  169.7170 F       1  UNL1       -0.1659
     17 F         141.8534  142.9941  169.0979 F       1  UNL1       -0.1659
     18 F         143.1638  140.6904  167.6923 F       1  UNL1       -0.1659
     19 C         140.1847  140.8925  158.8121 C.3     1  UNL1        0.0731
     20 C         141.2005  139.7906  158.8733 C.3     1  UNL1        0.0294
     21 C         140.8626  138.4957  159.5511 C.3     1  UNL1        0.0666
     22 S         139.6809  138.4170  160.4716 S.3     1  UNL1       -0.0756
     23 C         139.6410  138.2446  164.3490 C.ar    1  UNL1        0.1699
     24 N         140.7641  137.3032  164.0284 N.ar    1  UNL1       -0.1281
     25 N         140.9157  137.2533  162.5370 N.ar    1  UNL1       -0.1221
     26 C         139.8864  138.1637  161.9357 C.ar    1  UNL1        0.1932
     27 N         139.0986  138.7764  163.0555 N.ar    1  UNL1       -0.2884
     28 C         137.9670  139.7499  162.9078 C.3     1  UNL1        0.1340
     29 C         139.2825  140.3790  169.1652 C.3     1  UNL1        0.1538
     30 N         138.9824  139.5740  167.9356 N.ar    1  UNL1       -0.2472
     31 C         139.8199  139.5177  166.6925 C.ar    1  UNL1        0.0997
     32 C         139.1472  138.5929  165.7219 C.ar    1  UNL1        0.0755
     33 C         137.8939  138.0775  166.3651 C.ar    1  UNL1        0.1247
     34 N         137.7921  138.6839  167.7333 N.ar    1  UNL1       -0.1675
@<TRIPOS>BOND
     1    29    30    1
     2    30    31   ar
     3    31    32   ar
     4    32    23    1
     5    23    24   ar
     6    24    25   ar
     7    25    26   ar
     8    26    22    1
     9    22    21    1
    10    21    20    1
    11    20    19    1
    12    19     1    1
    13     1     2    1
    14     2     3    1
    15     3     4    1
    16     4     5    1
    17     5     6    1
    18     6     9    1
    19     9    10   ar
    20    10    11   ar
    21    11    12   ar
    22    12    15    1
    23    15    16    1
    24    15    17    1
    25    15    18    1
    26    12    13   ar
    27    13    14   ar
    28     6     7    1
    29     7     8    1
    30    26    27   ar
    31    27    28    1
    32    32    33   ar
    33    33    34   ar
    34    34    30   ar
    35    27    23   ar
    36     8     1    1
    37     7     3    1
    38    14     9   ar
@<TRIPOS>MOLECULE
*****
 34 38 0 0 0
SMALL
GASTEIGER

@<TRIPOS>ATOM
      1 N         141.7514  142.3936  159.6221 N.3     1  UNL1       -0.2712
      2 C         142.6187  141.3550  158.9748 C.3     1  UNL1        0.0738
      3 C         142.4626  140.0763  159.7433 C.3     1  UNL1        0.0372
      4 C         142.9022  138.6441  159.8183 C.3     1  UNL1        0.0245
      5 C         142.2102  138.0074  160.9869 C.3     1  UNL1        0.0909
      6 N         141.3429  139.0461  161.6343 N.pl3   1  UNL1       -0.3077
      7 C         141.4990  140.3247  160.8657 C.3     1  UNL1        0.0901
      8 C         141.0594  141.7569  160.7908 C.3     1  UNL1        0.0921
      9 C         140.4725  138.8420  162.8387 C.ar    1  UNL1        0.0478
     10 C         139.5106  139.9134  163.2592 C.ar    1  UNL1        0.0145
     11 C         138.6401  139.7092  164.4636 C.ar    1  UNL1        0.0051
     12 C         138.7316  138.4337  165.2476 C.ar    1  UNL1        0.0715
     13 C         139.6936  137.3623  164.8272 C.ar    1  UNL1        0.0051
     14 C         140.5640  137.5664  163.6227 C.ar    1  UNL1        0.0145
     15 C         137.8612  138.2296  166.4521 C.3     1  UNL1        0.4186
     16 F         136.9908  138.0255  167.6565 F       1  UNL1       -0.1659
     17 F         137.9368  136.7445  166.2550 F       1  UNL1       -0.1659
     18 F         137.7856  139.7147  166.6491 F       1  UNL1       -0.1659
     19 C         141.6023  143.8188  159.1787 C.3     1  UNL1        0.0731
     20 C         141.4589  144.9102  160.1976 C.3     1  UNL1        0.0294
     21 C         140.0989  145.4423  160.5404 C.3     1  UNL1        0.0666
     22 S         139.8138  145.9337  161.9286 S.3     1  UNL1       -0.0756
     23 C         139.9950  143.4384  164.8961 C.ar    1  UNL1        0.1699
     24 N         138.5222  143.4445  164.6120 N.ar    1  UNL1       -0.1281
     25 N         138.2750  144.3800  163.4658 N.ar    1  UNL1       -0.1221
     26 C         139.5952  144.9521  163.0415 C.ar    1  UNL1        0.1932
     27 N         140.6582  144.3701  163.9254 N.ar    1  UNL1       -0.2884
     28 C         142.1265  144.6677  163.8517 C.3     1  UNL1        0.1340
     29 C         141.5107  141.6188  169.6155 C.3     1  UNL1        0.1538
     30 N         141.3804  141.8042  168.1327 N.ar    1  UNL1       -0.2472
     31 C         140.5009  142.8048  167.4432 C.ar    1  UNL1        0.0997
     32 C         140.6838  142.6406  165.9634 C.ar    1  UNL1        0.0755
     33 C         141.6762  141.5386  165.7384 C.ar    1  UNL1        0.1247
     34 N         142.1068  141.0217  167.0791 N.ar    1  UNL1       -0.1675
@<TRIPOS>BOND
     1    29    30    1
     2    30    31   ar
     3    31    32   ar
     4    32    23    1
     5    23    24   ar
     6    24    25   ar
     7    25    26   ar
     8    26    22    1
     9    22    21    1
    10    21    20    1
    11    20    19    1
    12    19     1    1
    13     1     2    1
    14     2     3    1
    15     3     4    1
    16     4     5    1
    17     5     6    1
    18     6     9    1
    19     9    10   ar
    20    10    11   ar
    21    11    12   ar
    22    12    15    1
    23    15    16    1
    24    15    17    1
    25    15    18    1
    26    12    13   ar
    27    13    14   ar
    28     6     7    1
    29     7     8    1
    30    26    27   ar
    31    27    28    1
    32    32    33   ar
    33    33    34   ar
    34    34    30   ar
    35    27    23   ar
    36     8     1    1
    37     7     3    1
    38    14     9   ar
