@<TRIPOS>MOLECULE
*****
 35 40 0 0 0
SMALL
GASTEIGER

@<TRIPOS>ATOM
      1 C         140.1913  141.1307  161.5230 C.3     1  UNL1        0.0339
      2 C         141.1432  141.5948  162.5853 C.ar    1  UNL1        0.0095
      3 C         142.2068  142.5988  162.2526 C.ar    1  UNL1        0.0730
      4 C         143.1587  143.0629  163.3149 C.ar    1  UNL1        0.1531
      5 F         144.2224  144.0669  162.9822 F       1  UNL1       -0.2029
      6 C         143.0470  142.5230  164.7099 C.ar    1  UNL1        0.0320
      7 C         141.9834  141.5190  165.0425 C.ar    1  UNL1        0.0145
      8 C         141.8717  140.9791  166.4376 C.ar    1  UNL1       -0.0084
      9 C         140.8080  139.9751  166.7703 C.ar    1  UNL1        0.0570
     10 C         139.8561  139.5110  165.7080 C.ar    1  UNL1        0.2606
     11 O         138.7924  138.5070  166.0407 O.2     1  UNL1       -0.2670
     12 N         139.9678  140.0509  164.3130 N.ar    1  UNL1       -0.2977
     13 C         141.0315  141.0549  163.9802 C.ar    1  UNL1        0.0594
     14 N         142.3186  143.1387  160.8576 N.pl3   1  UNL1       -0.3059
     15 C         143.2740  142.6650  159.8027 C.3     1  UNL1        0.0909
     16 C         143.0405  143.4806  158.5657 C.3     1  UNL1        0.0244
     17 C         141.9406  144.4584  158.8561 C.3     1  UNL1        0.0344
     18 C         141.4945  144.2471  160.2725 C.3     1  UNL1        0.0921
     19 C         141.3846  145.4700  157.8981 C.3     1  UNL1        0.0406
     20 N         142.5875  146.3480  157.7192 N.3     1  UNL1       -0.3231
     21 C         140.4108  146.1766  157.0024 C.3     1  UNL1        0.0156
     22 C         139.9886  144.9432  157.7445 C.3     1  UNL1        0.0156
     23 H         143.3581  145.9877  158.2820 H       1  UNL1        0.1188
     24 H         142.3631  147.2971  158.0178 H       1  UNL1        0.1188
     25 C         139.0159  139.5868  163.2507 C.3     1  UNL1        0.0885
     26 C         138.5836  138.5498  162.2569 C.3     1  UNL1        0.0246
     27 C         137.7995  139.8201  162.4046 C.3     1  UNL1        0.0246
     28 C         142.8236  141.4432  167.4999 C.3     1  UNL1        0.0931
     29 C         142.3413  142.3452  168.5970 C.ar    1  UNL1        0.1578
     30 N         143.1535  142.8294  169.7614 N.ar    1  UNL1       -0.2009
     31 O         142.2764  143.7048  170.6064 O.2     1  UNL1       -0.3204
     32 C         140.9219  143.7617  169.9642 C.ar    1  UNL1        0.4604
     33 O         139.7356  144.5249  170.4744 O.2     1  UNL1       -0.2188
     34 N         140.9621  142.9214  168.7224 N.ar    1  UNL1       -0.1570
     35 H         144.0968  142.6109  169.9398 H       1  UNL1        0.2088
@<TRIPOS>BOND
     1     1     2    1
     2     2     3   ar
     3     3    14    1
     4    14    15    1
     5    15    16    1
     6    16    17    1
     7    17    19    1
     8    19    20    1
     9    19    21    1
    10    21    22    1
    11    17    18    1
    12     3     4   ar
    13     4     5    1
    14     4     6   ar
    15     6     7   ar
    16     7     8   ar
    17     8    28    1
    18    28    29    1
    19    29    30   ar
    20    30    31   ar
    21    31    32   ar
    22    32    33    2
    23    32    34   ar
    24     8     9   ar
    25     9    10   ar
    26    10    11    2
    27    10    12   ar
    28    12    25    1
    29    25    26    1
    30    26    27    1
    31    12    13   ar
    32    13     2   ar
    33    18    14    1
    34    13     7   ar
    35    22    19    1
    36    34    29   ar
    37    27    25    1
    38    20    23    1
    39    20    24    1
    40    30    35    1
@<TRIPOS>MOLECULE
*****
 35 40 0 0 0
SMALL
GASTEIGER

@<TRIPOS>ATOM
      1 C         142.2511  140.7722  162.5312 C.3     1  UNL1        0.0339
      2 C         141.2363  140.9847  163.6151 C.ar    1  UNL1        0.0095
      3 C         140.0053  141.7969  163.3413 C.ar    1  UNL1        0.0730
      4 C         138.9905  142.0094  164.4252 C.ar    1  UNL1        0.1531
      5 F         137.7595  142.8217  164.1513 F       1  UNL1       -0.2029
      6 C         139.2065  141.4097  165.7830 C.ar    1  UNL1        0.0320
      7 C         140.4375  140.5974  166.0568 C.ar    1  UNL1        0.0145
      8 C         140.6536  139.9977  167.4147 C.ar    1  UNL1       -0.0084
      9 C         141.8845  139.1854  167.6885 C.ar    1  UNL1        0.0570
     10 C         142.8994  138.9729  166.6046 C.ar    1  UNL1        0.2606
     11 O         144.1304  138.1607  166.8785 O.2     1  UNL1       -0.2670
     12 N         142.6833  139.5727  165.2468 N.ar    1  UNL1       -0.2977
     13 C         141.4523  140.3849  164.9729 C.ar    1  UNL1        0.0594
     14 N         139.7892  142.3967  161.9835 N.pl3   1  UNL1       -0.3059
     15 C         138.7383  141.9857  160.9952 C.3     1  UNL1        0.0909
     16 C         138.8856  142.8477  159.7765 C.3     1  UNL1        0.0244
     17 C         140.0275  143.7915  160.0116 C.3     1  UNL1        0.0344
     18 C         140.5860  143.5127  161.3756 C.3     1  UNL1        0.0921
     19 C         140.5239  144.8315  159.0513 C.3     1  UNL1        0.0406
     20 N         141.4440  145.6002  159.9526 N.3     1  UNL1       -0.3231
     21 C         140.7007  145.6043  157.7780 C.3     1  UNL1        0.0156
     22 C         139.7762  144.4238  157.8166 C.3     1  UNL1        0.0156
     23 H         141.4334  145.1844  160.8839 H       1  UNL1        0.1188
     24 H         141.1323  146.5698  160.0096 H       1  UNL1        0.1188
     25 C         143.6982  139.3602  164.1629 C.3     1  UNL1        0.0885
     26 C         144.1474  138.6378  162.9275 C.3     1  UNL1        0.0246
     27 C         145.0067  139.7145  163.5209 C.3     1  UNL1        0.0246
     28 C         139.6387  140.2101  168.4986 C.3     1  UNL1        0.0931
     29 C         139.7976  141.3488  169.4620 C.ar    1  UNL1        0.1578
     30 N         139.8103  141.2426  170.9582 N.ar    1  UNL1       -0.2009
     31 O         139.9922  142.6218  171.5193 O.2     1  UNL1       -0.3204
     32 C         140.0919  143.5803  170.3698 C.ar    1  UNL1        0.4604
     33 O         140.2790  145.0650  170.4736 O.2     1  UNL1       -0.2188
     34 N         139.9716  142.7936  169.0984 N.ar    1  UNL1       -0.1570
     35 H         139.7158  140.4133  171.4803 H       1  UNL1        0.2088
@<TRIPOS>BOND
     1     1     2    1
     2     2     3   ar
     3     3    14    1
     4    14    15    1
     5    15    16    1
     6    16    17    1
     7    17    19    1
     8    19    20    1
     9    19    21    1
    10    21    22    1
    11    17    18    1
    12     3     4   ar
    13     4     5    1
    14     4     6   ar
    15     6     7   ar
    16     7     8   ar
    17     8    28    1
    18    28    29    1
    19    29    30   ar
    20    30    31   ar
    21    31    32   ar
    22    32    33    2
    23    32    34   ar
    24     8     9   ar
    25     9    10   ar
    26    10    11    2
    27    10    12   ar
    28    12    25    1
    29    25    26    1
    30    26    27    1
    31    12    13   ar
    32    13     2   ar
    33    18    14    1
    34    13     7   ar
    35    22    19    1
    36    34    29   ar
    37    27    25    1
    38    20    23    1
    39    20    24    1
    40    30    35    1
@<TRIPOS>MOLECULE
*****
 35 40 0 0 0
SMALL
GASTEIGER

@<TRIPOS>ATOM
      1 C         140.3252  140.4493  162.0157 C.3     1  UNL1        0.0339
      2 C         140.6169  141.2792  163.2307 C.ar    1  UNL1        0.0095
      3 C         141.3846  142.5609  163.0968 C.ar    1  UNL1        0.0730
      4 C         141.6763  143.3908  164.3117 C.ar    1  UNL1        0.1531
      5 F         142.4440  144.6726  164.1778 F       1  UNL1       -0.2029
      6 C         141.2004  142.9391  165.6606 C.ar    1  UNL1        0.0320
      7 C         140.4328  141.6574  165.7944 C.ar    1  UNL1        0.0145
      8 C         139.9568  141.2055  167.1433 C.ar    1  UNL1       -0.0084
      9 C         139.1892  139.9238  167.2772 C.ar    1  UNL1        0.0570
     10 C         138.8975  139.0939  166.0622 C.ar    1  UNL1        0.2606
     11 O         138.1298  137.8122  166.1962 O.2     1  UNL1       -0.2670
     12 N         139.3734  139.5457  164.7134 N.ar    1  UNL1       -0.2977
     13 C         140.1410  140.8274  164.5795 C.ar    1  UNL1        0.0594
     14 N         141.8605  143.0127  161.7479 N.pl3   1  UNL1       -0.3059
     15 C         143.1277  142.5823  161.0704 C.3     1  UNL1        0.0909
     16 C         143.2032  143.2778  159.7435 C.3     1  UNL1        0.0244
     17 C         141.9827  144.1381  159.6010 C.3     1  UNL1        0.0344
     18 C         141.1529  143.9743  160.8398 C.3     1  UNL1        0.0921
     19 C         141.6504  145.0093  158.4260 C.3     1  UNL1        0.0406
     20 N         142.9069  144.8525  157.6219 N.3     1  UNL1       -0.3231
     21 C         140.8817  145.9349  157.5303 C.3     1  UNL1        0.0156
     22 C         140.2785  145.4686  158.8221 C.3     1  UNL1        0.0156
     23 H         143.5500  144.2321  158.1137 H       1  UNL1        0.1188
     24 H         143.3450  145.7648  157.4945 H       1  UNL1        0.1188
     25 C         139.0816  138.7157  163.4984 C.3     1  UNL1        0.0885
     26 C         138.1802  138.3615  162.3531 C.3     1  UNL1        0.0246
     27 C         139.4778  137.6325  162.5395 C.3     1  UNL1        0.0246
     28 C         140.2485  142.0355  168.3583 C.3     1  UNL1        0.0931
     29 C         141.0647  141.4633  169.4791 C.ar    1  UNL1        0.1578
     30 N         140.9165  141.7926  170.9350 N.ar    1  UNL1       -0.2009
     31 O         141.9326  140.9941  171.6966 O.2     1  UNL1       -0.3204
     32 C         142.7087  140.1713  170.7114 C.ar    1  UNL1        0.4604
     33 O         143.8252  139.2247  171.0391 O.2     1  UNL1       -0.2188
     34 N         142.1723  140.4612  169.3409 N.ar    1  UNL1       -0.1570
     35 H         140.2666  142.4222  171.3227 H       1  UNL1        0.2088
@<TRIPOS>BOND
     1     1     2    1
     2     2     3   ar
     3     3    14    1
     4    14    15    1
     5    15    16    1
     6    16    17    1
     7    17    19    1
     8    19    20    1
     9    19    21    1
    10    21    22    1
    11    17    18    1
    12     3     4   ar
    13     4     5    1
    14     4     6   ar
    15     6     7   ar
    16     7     8   ar
    17     8    28    1
    18    28    29    1
    19    29    30   ar
    20    30    31   ar
    21    31    32   ar
    22    32    33    2
    23    32    34   ar
    24     8     9   ar
    25     9    10   ar
    26    10    11    2
    27    10    12   ar
    28    12    25    1
    29    25    26    1
    30    26    27    1
    31    12    13   ar
    32    13     2   ar
    33    18    14    1
    34    13     7   ar
    35    22    19    1
    36    34    29   ar
    37    27    25    1
    38    20    23    1
    39    20    24    1
    40    30    35    1
@<TRIPOS>MOLECULE
*****
 35 40 0 0 0
SMALL
GASTEIGER

@<TRIPOS>ATOM
      1 C         140.6651  140.3727  161.9649 C.3     1  UNL1        0.0339
      2 C         141.5750  140.7837  163.0844 C.ar    1  UNL1        0.0095
      3 C         142.8671  141.4830  162.7824 C.ar    1  UNL1        0.0730
      4 C         143.7770  141.8940  163.9018 C.ar    1  UNL1        0.1531
      5 F         145.0692  142.5934  163.5997 F       1  UNL1       -0.2029
      6 C         143.3948  141.6057  165.3233 C.ar    1  UNL1        0.0320
      7 C         142.1026  140.9063  165.6253 C.ar    1  UNL1        0.0145
      8 C         141.7203  140.6179  167.0469 C.ar    1  UNL1       -0.0084
      9 C         140.4282  139.9185  167.3489 C.ar    1  UNL1        0.0570
     10 C         139.5183  139.5075  166.2294 C.ar    1  UNL1        0.2606
     11 O         138.2261  138.8081  166.5315 O.2     1  UNL1       -0.2670
     12 N         139.9006  139.7959  164.8079 N.ar    1  UNL1       -0.2977
     13 C         141.1928  140.4953  164.5059 C.ar    1  UNL1        0.0594
     14 N         143.2494  141.7714  161.3608 N.pl3   1  UNL1       -0.3059
     15 C         143.1738  143.1064  160.6809 C.3     1  UNL1        0.0909
     16 C         143.6521  142.9356  159.2695 C.3     1  UNL1        0.0244
     17 C         144.0234  141.4950  159.0771 C.3     1  UNL1        0.0344
     18 C         143.7745  140.7756  160.3696 C.3     1  UNL1        0.0921
     19 C         144.5509  140.8816  157.8140 C.3     1  UNL1        0.0406
     20 N         144.0298  139.4834  157.9661 N.3     1  UNL1       -0.3231
     21 C         145.2593  140.7539  156.4981 C.3     1  UNL1        0.0156
     22 C         145.2552  142.0670  157.2233 C.3     1  UNL1        0.0156
     23 H         143.5093  139.4077  158.8401 H       1  UNL1        0.1188
     24 H         144.8117  138.8285  157.9782 H       1  UNL1        0.1188
     25 C         138.9907  139.3849  163.6885 C.3     1  UNL1        0.0885
     26 C         137.8836  139.7076  162.7293 C.3     1  UNL1        0.0246
     27 C         138.5219  138.3504  162.7087 C.3     1  UNL1        0.0246
     28 C         142.6302  141.0289  168.1664 C.3     1  UNL1        0.0931
     29 C         142.2737  142.2021  169.0303 C.ar    1  UNL1        0.1578
     30 N         143.1843  142.8882  170.0051 N.ar    1  UNL1       -0.2009
     31 O         142.4174  144.0053  170.6484 O.2     1  UNL1       -0.3204
     32 C         141.0329  144.0097  170.0711 C.ar    1  UNL1        0.4604
     33 O         139.9307  144.9615  170.4307 O.2     1  UNL1       -0.2188
     34 N         140.9442  142.8953  169.0711 N.ar    1  UNL1       -0.1570
     35 H         144.1208  142.6474  170.1903 H       1  UNL1        0.2088
@<TRIPOS>BOND
     1     1     2    1
     2     2     3   ar
     3     3    14    1
     4    14    15    1
     5    15    16    1
     6    16    17    1
     7    17    19    1
     8    19    20    1
     9    19    21    1
    10    21    22    1
    11    17    18    1
    12     3     4   ar
    13     4     5    1
    14     4     6   ar
    15     6     7   ar
    16     7     8   ar
    17     8    28    1
    18    28    29    1
    19    29    30   ar
    20    30    31   ar
    21    31    32   ar
    22    32    33    2
    23    32    34   ar
    24     8     9   ar
    25     9    10   ar
    26    10    11    2
    27    10    12   ar
    28    12    25    1
    29    25    26    1
    30    26    27    1
    31    12    13   ar
    32    13     2   ar
    33    18    14    1
    34    13     7   ar
    35    22    19    1
    36    34    29   ar
    37    27    25    1
    38    20    23    1
    39    20    24    1
    40    30    35    1
@<TRIPOS>MOLECULE
*****
 35 40 0 0 0
SMALL
GASTEIGER

@<TRIPOS>ATOM
      1 C         141.6267  140.2460  161.6555 C.3     1  UNL1        0.0339
      2 C         140.6216  140.4443  162.7512 C.ar    1  UNL1        0.0095
      3 C         139.2754  141.0268  162.4376 C.ar    1  UNL1        0.0730
      4 C         138.2703  141.2251  163.5332 C.ar    1  UNL1        0.1531
      5 F         136.9241  141.8077  163.2195 F       1  UNL1       -0.2029
      6 C         138.6113  140.8409  164.9424 C.ar    1  UNL1        0.0320
      7 C         139.9575  140.2583  165.2560 C.ar    1  UNL1        0.0145
      8 C         140.2986  139.8740  166.6653 C.ar    1  UNL1       -0.0084
      9 C         141.6448  139.2914  166.9789 C.ar    1  UNL1        0.0570
     10 C         142.6499  139.0932  165.8833 C.ar    1  UNL1        0.2606
     11 O         143.9962  138.5106  166.1970 O.2     1  UNL1       -0.2670
     12 N         142.3089  139.4774  164.4741 N.ar    1  UNL1       -0.2977
     13 C         140.9626  140.0600  164.1604 C.ar    1  UNL1        0.0594
     14 N         138.9343  141.4111  161.0283 N.pl3   1  UNL1       -0.3059
     15 C         138.9097  142.8056  160.4760 C.3     1  UNL1        0.0909
     16 C         138.5181  142.7248  159.0303 C.3     1  UNL1        0.0244
     17 C         138.3007  141.2803  158.6891 C.3     1  UNL1        0.0344
     18 C         138.5579  140.4685  159.9239 C.3     1  UNL1        0.0921
     19 C         137.8969  140.7422  157.3484 C.3     1  UNL1        0.0406
     20 N         138.5947  139.4148  157.3796 N.3     1  UNL1       -0.3231
     21 C         137.2508  140.6652  155.9969 C.3     1  UNL1        0.0156
     22 C         137.0589  141.8828  156.8516 C.3     1  UNL1        0.0156
     23 H         139.0946  139.3142  158.2630 H       1  UNL1        0.1188
     24 H         139.2573  139.3607  156.6059 H       1  UNL1        0.1188
     25 C         143.3140  139.2791  163.3784 C.3     1  UNL1        0.0885
     26 C         143.8953  138.4302  162.2870 C.3     1  UNL1        0.0246
     27 C         144.4736  139.7846  162.5723 C.3     1  UNL1        0.0246
     28 C         139.2935  140.0723  167.7610 C.3     1  UNL1        0.0931
     29 C         139.7526  140.4196  169.1461 C.ar    1  UNL1        0.1578
     30 N         139.3169  139.7468  170.4140 N.ar    1  UNL1       -0.2009
     31 O         140.0230  140.4121  171.5580 O.2     1  UNL1       -0.3204
     32 C         140.8951  141.4961  170.9971 C.ar    1  UNL1        0.4604
     33 O         141.7791  142.4142  171.7881 O.2     1  UNL1       -0.2188
     34 N         140.7279  141.5007  169.5065 N.ar    1  UNL1       -0.1570
     35 H         138.6795  138.9997  170.4831 H       1  UNL1        0.2088
@<TRIPOS>BOND
     1     1     2    1
     2     2     3   ar
     3     3    14    1
     4    14    15    1
     5    15    16    1
     6    16    17    1
     7    17    19    1
     8    19    20    1
     9    19    21    1
    10    21    22    1
    11    17    18    1
    12     3     4   ar
    13     4     5    1
    14     4     6   ar
    15     6     7   ar
    16     7     8   ar
    17     8    28    1
    18    28    29    1
    19    29    30   ar
    20    30    31   ar
    21    31    32   ar
    22    32    33    2
    23    32    34   ar
    24     8     9   ar
    25     9    10   ar
    26    10    11    2
    27    10    12   ar
    28    12    25    1
    29    25    26    1
    30    26    27    1
    31    12    13   ar
    32    13     2   ar
    33    18    14    1
    34    13     7   ar
    35    22    19    1
    36    34    29   ar
    37    27    25    1
    38    20    23    1
    39    20    24    1
    40    30    35    1
@<TRIPOS>MOLECULE
*****
 35 40 0 0 0
SMALL
GASTEIGER

@<TRIPOS>ATOM
      1 C         141.6997  142.2889  162.1488 C.3     1  UNL1        0.0339
      2 C         141.2874  141.4569  163.3269 C.ar    1  UNL1        0.0095
      3 C         140.1916  140.4429  163.1822 C.ar    1  UNL1        0.0730
      4 C         139.7793  139.6110  164.3603 C.ar    1  UNL1        0.1531
      5 F         138.6835  138.5969  164.2156 F       1  UNL1       -0.2029
      6 C         140.4628  139.7931  165.6830 C.ar    1  UNL1        0.0320
      7 C         141.5585  140.8071  165.8277 C.ar    1  UNL1        0.0145
      8 C         142.2421  140.9892  167.1505 C.ar    1  UNL1       -0.0084
      9 C         143.3378  142.0033  167.2951 C.ar    1  UNL1        0.0570
     10 C         143.7501  142.8352  166.1171 C.ar    1  UNL1        0.2606
     11 O         144.8460  143.8493  166.2618 O.2     1  UNL1       -0.2670
     12 N         143.0667  142.6531  164.7943 N.ar    1  UNL1       -0.2977
     13 C         141.9709  141.6390  164.6496 C.ar    1  UNL1        0.0594
     14 N         139.5081  140.2608  161.8594 N.pl3   1  UNL1       -0.3059
     15 C         138.0824  140.6083  161.5484 C.3     1  UNL1        0.0909
     16 C         137.8234  140.2615  160.1123 C.3     1  UNL1        0.0244
     17 C         139.0891  139.6996  159.5356 C.3     1  UNL1        0.0344
     18 C         140.1303  139.6992  160.6154 C.3     1  UNL1        0.0921
     19 C         139.2801  139.2220  158.1265 C.3     1  UNL1        0.0406
     20 N         138.1283  139.9131  157.4590 N.3     1  UNL1       -0.3231
     21 C         139.8710  138.5044  156.9494 C.3     1  UNL1        0.0156
     22 C         140.4982  138.3650  158.3048 C.3     1  UNL1        0.0156
     23 H         137.6127  140.4588  158.1495 H       1  UNL1        0.1188
     24 H         137.5086  139.2174  157.0439 H       1  UNL1        0.1188
     25 C         143.4790  143.4851  163.6163 C.3     1  UNL1        0.0885
     26 C         144.3131  143.6674  162.3830 C.3     1  UNL1        0.0246
     27 C         143.3591  144.7436  162.8091 C.3     1  UNL1        0.0246
     28 C         141.8297  140.1573  168.3286 C.3     1  UNL1        0.0931
     29 C         141.1981  140.8091  169.5228 C.ar    1  UNL1        0.1578
     30 N         141.3064  140.3401  170.9435 N.ar    1  UNL1       -0.2009
     31 O         140.5226  141.2855  171.8047 O.2     1  UNL1       -0.3204
     32 C         139.9298  142.3388  170.9163 C.ar    1  UNL1        0.4604
     33 O         139.0705  143.4853  171.3602 O.2     1  UNL1       -0.2188
     34 N         140.3474  142.0444  169.5060 N.ar    1  UNL1       -0.1570
     35 H         141.8045  139.5504  171.2558 H       1  UNL1        0.2088
@<TRIPOS>BOND
     1     1     2    1
     2     2     3   ar
     3     3    14    1
     4    14    15    1
     5    15    16    1
     6    16    17    1
     7    17    19    1
     8    19    20    1
     9    19    21    1
    10    21    22    1
    11    17    18    1
    12     3     4   ar
    13     4     5    1
    14     4     6   ar
    15     6     7   ar
    16     7     8   ar
    17     8    28    1
    18    28    29    1
    19    29    30   ar
    20    30    31   ar
    21    31    32   ar
    22    32    33    2
    23    32    34   ar
    24     8     9   ar
    25     9    10   ar
    26    10    11    2
    27    10    12   ar
    28    12    25    1
    29    25    26    1
    30    26    27    1
    31    12    13   ar
    32    13     2   ar
    33    18    14    1
    34    13     7   ar
    35    22    19    1
    36    34    29   ar
    37    27    25    1
    38    20    23    1
    39    20    24    1
    40    30    35    1
@<TRIPOS>MOLECULE
*****
 35 40 0 0 0
SMALL
GASTEIGER

@<TRIPOS>ATOM
      1 C         140.5388  141.2280  161.3751 C.3     1  UNL1        0.0339
      2 C         141.0944  141.8443  162.6246 C.ar    1  UNL1        0.0095
      3 C         141.3521  143.3208  162.6820 C.ar    1  UNL1        0.0730
      4 C         141.9078  143.9372  163.9316 C.ar    1  UNL1        0.1531
      5 F         142.1655  145.4138  163.9890 F       1  UNL1       -0.2029
      6 C         142.2058  143.0770  165.1237 C.ar    1  UNL1        0.0320
      7 C         141.9481  141.6004  165.0663 C.ar    1  UNL1        0.0145
      8 C         142.2461  140.7401  166.2584 C.ar    1  UNL1       -0.0084
      9 C         141.9884  139.2636  166.2010 C.ar    1  UNL1        0.0570
     10 C         141.4327  138.6472  164.9514 C.ar    1  UNL1        0.2606
     11 O         141.1750  137.1706  164.8941 O.2     1  UNL1       -0.2670
     12 N         141.1347  139.5074  163.7593 N.ar    1  UNL1       -0.2977
     13 C         141.3924  140.9841  163.8167 C.ar    1  UNL1        0.0594
     14 N         141.0541  144.1811  161.4899 N.pl3   1  UNL1       -0.3059
     15 C         139.9939  145.2391  161.4090 C.3     1  UNL1        0.0909
     16 C         140.0485  145.8464  160.0385 C.3     1  UNL1        0.0244
     17 C         141.1426  145.1636  159.2723 C.3     1  UNL1        0.0344
     18 C         141.7641  144.1345  160.1694 C.3     1  UNL1        0.0921
     19 C         141.5446  145.4583  157.8576 C.3     1  UNL1        0.0406
     20 N         142.9152  144.8490  157.8439 N.3     1  UNL1       -0.3231
     21 C         141.4706  145.9646  156.4476 C.3     1  UNL1        0.0156
     22 C         140.3136  146.1700  157.3799 C.3     1  UNL1        0.0156
     23 H         143.1191  144.4502  158.7603 H       1  UNL1        0.1188
     24 H         143.6047  145.5680  157.6250 H       1  UNL1        0.1188
     25 C         140.5791  138.8911  162.5098 C.3     1  UNL1        0.0885
     26 C         140.7876  138.3304  161.1343 C.3     1  UNL1        0.0246
     27 C         139.4082  138.3843  161.7211 C.3     1  UNL1        0.0246
     28 C         142.8017  141.3564  167.5080 C.3     1  UNL1        0.0931
     29 C         141.8733  141.8488  168.5783 C.ar    1  UNL1        0.1578
     30 N         140.7263  142.7956  168.3834 N.ar    1  UNL1       -0.2009
     31 O         140.0730  143.0128  169.7161 O.2     1  UNL1       -0.3204
     32 C         140.8163  142.2002  170.7346 C.ar    1  UNL1        0.4604
     33 O         140.5021  142.1210  172.1992 O.2     1  UNL1       -0.2188
     34 N         141.9289  141.4809  170.0314 N.ar    1  UNL1       -0.1570
     35 H         140.4506  143.2029  167.5306 H       1  UNL1        0.2088
@<TRIPOS>BOND
     1     1     2    1
     2     2     3   ar
     3     3    14    1
     4    14    15    1
     5    15    16    1
     6    16    17    1
     7    17    19    1
     8    19    20    1
     9    19    21    1
    10    21    22    1
    11    17    18    1
    12     3     4   ar
    13     4     5    1
    14     4     6   ar
    15     6     7   ar
    16     7     8   ar
    17     8    28    1
    18    28    29    1
    19    29    30   ar
    20    30    31   ar
    21    31    32   ar
    22    32    33    2
    23    32    34   ar
    24     8     9   ar
    25     9    10   ar
    26    10    11    2
    27    10    12   ar
    28    12    25    1
    29    25    26    1
    30    26    27    1
    31    12    13   ar
    32    13     2   ar
    33    18    14    1
    34    13     7   ar
    35    22    19    1
    36    34    29   ar
    37    27    25    1
    38    20    23    1
    39    20    24    1
    40    30    35    1
@<TRIPOS>MOLECULE
*****
 35 40 0 0 0
SMALL
GASTEIGER

@<TRIPOS>ATOM
      1 C         141.1025  142.6987  164.9670 C.3     1  UNL1        0.0339
      2 C         141.4676  141.4049  164.3015 C.ar    1  UNL1        0.0095
      3 C         141.2926  140.1085  165.0353 C.ar    1  UNL1        0.0730
      4 C         141.6577  138.8147  164.3698 C.ar    1  UNL1        0.1531
      5 F         141.4827  137.5182  165.1037 F       1  UNL1       -0.2029
      6 C         142.1978  138.8174  162.9705 C.ar    1  UNL1        0.0320
      7 C         142.3729  140.1139  162.2367 C.ar    1  UNL1        0.0145
      8 C         142.9130  140.1166  160.8372 C.ar    1  UNL1       -0.0084
      9 C         143.0881  141.4130  160.1034 C.ar    1  UNL1        0.0570
     10 C         142.7230  142.7068  160.7689 C.ar    1  UNL1        0.2606
     11 O         142.8980  144.0033  160.0350 O.2     1  UNL1       -0.2670
     12 N         142.1828  142.7041  162.1683 N.ar    1  UNL1       -0.2977
     13 C         142.0078  141.4076  162.9022 C.ar    1  UNL1        0.0594
     14 N         140.7525  140.1057  166.4348 N.pl3   1  UNL1       -0.3059
     15 C         139.3406  139.7939  166.8343 C.3     1  UNL1        0.0909
     16 C         139.2449  139.9098  168.3267 C.3     1  UNL1        0.0244
     17 C         140.5975  140.2932  168.8496 C.3     1  UNL1        0.0344
     18 C         141.5292  140.4143  167.6803 C.3     1  UNL1        0.0921
     19 C         140.9556  140.5163  170.2890 C.3     1  UNL1        0.0406
     20 N         139.9120  139.6669  170.9517 N.3     1  UNL1       -0.3231
     21 C         141.6761  141.0345  171.4983 C.3     1  UNL1        0.0156
     22 C         142.1236  141.4433  170.1262 C.3     1  UNL1        0.0156
     23 H         139.3244  139.2330  170.2398 H       1  UNL1        0.1188
     24 H         139.3358  140.2488  171.5598 H       1  UNL1        0.1188
     25 C         141.8177  143.9978  162.8338 C.3     1  UNL1        0.0885
     26 C         142.2018  145.1815  163.6713 C.3     1  UNL1        0.0246
     27 C         140.8013  145.0550  163.1490 C.3     1  UNL1        0.0246
     28 C         143.2781  138.8228  160.1717 C.3     1  UNL1        0.0931
     29 C         142.4703  138.3223  159.0112 C.ar    1  UNL1        0.1578
     30 N         142.9770  137.4673  157.8877 N.ar    1  UNL1       -0.2009
     31 O         141.8338  137.2054  156.9525 O.2     1  UNL1       -0.3204
     32 C         140.6205  137.8985  157.4982 C.ar    1  UNL1        0.4604
     33 O         139.2538  137.9010  156.8800 O.2     1  UNL1       -0.2188
     34 N         141.0139  138.5888  158.7705 N.ar    1  UNL1       -0.1570
     35 H         143.8982  137.1362  157.7825 H       1  UNL1        0.2088
@<TRIPOS>BOND
     1     1     2    1
     2     2     3   ar
     3     3    14    1
     4    14    15    1
     5    15    16    1
     6    16    17    1
     7    17    19    1
     8    19    20    1
     9    19    21    1
    10    21    22    1
    11    17    18    1
    12     3     4   ar
    13     4     5    1
    14     4     6   ar
    15     6     7   ar
    16     7     8   ar
    17     8    28    1
    18    28    29    1
    19    29    30   ar
    20    30    31   ar
    21    31    32   ar
    22    32    33    2
    23    32    34   ar
    24     8     9   ar
    25     9    10   ar
    26    10    11    2
    27    10    12   ar
    28    12    25    1
    29    25    26    1
    30    26    27    1
    31    12    13   ar
    32    13     2   ar
    33    18    14    1
    34    13     7   ar
    35    22    19    1
    36    34    29   ar
    37    27    25    1
    38    20    23    1
    39    20    24    1
    40    30    35    1
@<TRIPOS>MOLECULE
*****
 35 40 0 0 0
SMALL
GASTEIGER

@<TRIPOS>ATOM
      1 C         141.0999  142.4997  164.6175 C.3     1  UNL1        0.0339
      2 C         140.7085  141.2810  163.8354 C.ar    1  UNL1        0.0095
      3 C         140.8013  139.9233  164.4662 C.ar    1  UNL1        0.0730
      4 C         140.4099  138.7046  163.6841 C.ar    1  UNL1        0.1531
      5 F         140.5026  137.3468  164.3149 F       1  UNL1       -0.2029
      6 C         139.9258  138.8437  162.2712 C.ar    1  UNL1        0.0320
      7 C         139.8330  140.2014  161.6404 C.ar    1  UNL1        0.0145
      8 C         139.3489  140.3406  160.2275 C.ar    1  UNL1       -0.0084
      9 C         139.2562  141.6983  159.5967 C.ar    1  UNL1        0.0570
     10 C         139.6475  142.9170  160.3788 C.ar    1  UNL1        0.2606
     11 O         139.5548  144.2748  159.7480 O.2     1  UNL1       -0.2670
     12 N         140.1317  142.7779  161.7917 N.ar    1  UNL1       -0.2977
     13 C         140.2244  141.4201  162.4225 C.ar    1  UNL1        0.0594
     14 N         141.2854  139.7842  165.8791 N.pl3   1  UNL1       -0.3059
     15 C         142.6830  139.4414  166.3025 C.3     1  UNL1        0.0909
     16 C         142.7184  139.4088  167.8017 C.3     1  UNL1        0.0244
     17 C         141.3426  139.7314  168.3049 C.3     1  UNL1        0.0344
     18 C         140.4570  139.9634  167.1167 C.3     1  UNL1        0.0921
     19 C         140.9256  139.8084  169.7437 C.3     1  UNL1        0.0406
     20 N         142.1154  139.1674  170.3944 N.3     1  UNL1       -0.3231
     21 C         140.0954  140.1081  170.9565 C.3     1  UNL1        0.0156
     22 C         139.5910  140.4762  169.5927 C.3     1  UNL1        0.0156
     23 H         142.7910  138.8994  169.6787 H       1  UNL1        0.1188
     24 H         141.8166  138.3380  170.9074 H       1  UNL1        0.1188
     25 C         140.5231  143.9966  162.5738 C.3     1  UNL1        0.0885
     26 C         141.5593  145.0023  162.9795 C.3     1  UNL1        0.0246
     27 C         140.1647  145.1016  163.5227 C.3     1  UNL1        0.0246
     28 C         138.9575  139.1219  159.4454 C.3     1  UNL1        0.0931
     29 C         139.9362  138.4915  158.4996 C.ar    1  UNL1        0.1578
     30 N         139.6043  137.5219  157.4042 N.ar    1  UNL1       -0.2009
     31 O         140.8816  137.1511  156.7107 O.2     1  UNL1       -0.3204
     32 C         142.0029  137.8914  157.3775 C.ar    1  UNL1        0.4604
     33 O         143.4538  137.8165  157.0042 O.2     1  UNL1       -0.2188
     34 N         141.4186  138.7198  158.4831 N.ar    1  UNL1       -0.1570
     35 H         138.7059  137.1877  157.1798 H       1  UNL1        0.2088
@<TRIPOS>BOND
     1     1     2    1
     2     2     3   ar
     3     3    14    1
     4    14    15    1
     5    15    16    1
     6    16    17    1
     7    17    19    1
     8    19    20    1
     9    19    21    1
    10    21    22    1
    11    17    18    1
    12     3     4   ar
    13     4     5    1
    14     4     6   ar
    15     6     7   ar
    16     7     8   ar
    17     8    28    1
    18    28    29    1
    19    29    30   ar
    20    30    31   ar
    21    31    32   ar
    22    32    33    2
    23    32    34   ar
    24     8     9   ar
    25     9    10   ar
    26    10    11    2
    27    10    12   ar
    28    12    25    1
    29    25    26    1
    30    26    27    1
    31    12    13   ar
    32    13     2   ar
    33    18    14    1
    34    13     7   ar
    35    22    19    1
    36    34    29   ar
    37    27    25    1
    38    20    23    1
    39    20    24    1
    40    30    35    1
