@<TRIPOS>MOLECULE
*****
 33 37 0 0 0
SMALL
GASTEIGER

@<TRIPOS>ATOM
      1 C         143.5698  142.6102  164.2966 C.3     1  UNL1        0.0347
      2 C         144.3051  143.5360  165.2196 C.3     1  UNL1        0.0072
      3 C         145.0624  142.5213  164.4154 C.3     1  UNL1        0.0214
      4 C         145.5357  141.4284  163.5037 C.3     1  UNL1        0.0724
      5 N         144.3356  140.8417  162.8214 N.3     1  UNL1       -0.2724
      6 C         143.1206  141.5720  163.3114 C.3     1  UNL1        0.0761
      7 C         142.3769  144.7312  162.5420 C.3     1  UNL1        0.0307
      8 C         141.6046  144.2075  163.7164 C.ar    1  UNL1       -0.0258
      9 C         140.2358  144.7444  164.0135 C.ar    1  UNL1       -0.0007
     10 C         139.4635  144.2207  165.1879 C.ar    1  UNL1        0.0711
     11 C         140.0598  143.1602  166.0652 C.ar    1  UNL1        0.0035
     12 C         141.4286  142.6234  165.7681 C.ar    1  UNL1       -0.0046
     13 C         142.2009  143.1470  164.5937 C.ar    1  UNL1       -0.0254
     14 C         138.0947  144.7576  165.4850 C.3     1  UNL1        0.4186
     15 F         136.7260  145.2945  165.7822 F       1  UNL1       -0.1659
     16 F         138.6483  145.5247  166.6491 F       1  UNL1       -0.1659
     17 F         137.5411  143.9905  164.3210 F       1  UNL1       -0.1659
     18 C         144.3484  139.7212  161.8240 C.3     1  UNL1        0.0730
     19 C         143.5879  138.4590  162.1043 C.3     1  UNL1        0.0294
     20 C         142.1984  138.5294  162.6649 C.3     1  UNL1        0.0666
     21 S         141.8413  137.7346  163.8859 S.3     1  UNL1       -0.0756
     22 C         142.1507  138.2760  165.2502 C.ar    1  UNL1        0.1933
     23 N         143.4684  138.1770  165.9601 N.ar    1  UNL1       -0.1220
     24 N         143.3288  138.8513  167.2926 N.ar    1  UNL1       -0.1250
     25 C         141.9249  139.3670  167.4064 C.ar    1  UNL1        0.2029
     26 N         141.1968  139.0115  166.1441 N.ar    1  UNL1       -0.2860
     27 C         139.7659  139.3347  165.8307 C.3     1  UNL1        0.1341
     28 C         141.3500  140.1082  168.5769 C.ar    1  UNL1        0.1964
     29 O         140.1064  139.7387  169.3300 O.2     1  UNL1       -0.4283
     30 C         139.9056  140.7511  170.4184 C.ar    1  UNL1        0.2849
     31 N         141.0250  141.7463  170.3381 N.ar    1  UNL1       -0.2085
     32 C         141.9176  141.3490  169.2000 C.ar    1  UNL1        0.1001
     33 C         143.1599  142.0665  168.7618 C.3     1  UNL1        0.0556
@<TRIPOS>BOND
     1     7     8    1
     2     8     9   ar
     3     9    10   ar
     4    10    14    1
     5    14    15    1
     6    14    16    1
     7    14    17    1
     8    10    11   ar
     9    11    12   ar
    10    12    13   ar
    11    13     1    1
    12     1     2    1
    13     2     3    1
    14     3     4    1
    15     4     5    1
    16     5    18    1
    17    18    19    1
    18    19    20    1
    19    20    21    1
    20    21    22    1
    21    22    23   ar
    22    23    24   ar
    23    24    25   ar
    24    25    28    1
    25    28    29   ar
    26    29    30   ar
    27    30    31   ar
    28    31    32   ar
    29    32    33    1
    30    25    26   ar
    31    26    27    1
    32     5     6    1
    33    13     8   ar
    34     3     1    1
    35    26    22   ar
    36     6     1    1
    37    32    28   ar
@<TRIPOS>MOLECULE
*****
 33 37 0 0 0
SMALL
GASTEIGER

@<TRIPOS>ATOM
      1 C         142.0012  138.9822  165.7618 C.3     1  UNL1        0.0347
      2 C         143.3123  138.2559  165.8200 C.3     1  UNL1        0.0072
      3 C         142.2573  137.8223  164.8458 C.3     1  UNL1        0.0214
      4 C         141.0374  137.6246  163.9959 C.3     1  UNL1        0.0724
      5 N         140.0271  138.6622  164.3866 N.3     1  UNL1       -0.2724
      6 C         140.6228  139.5012  165.4779 C.3     1  UNL1        0.0761
      7 C         143.0944  141.6817  165.0424 C.3     1  UNL1        0.0307
      8 C         142.8694  141.3228  166.4814 C.ar    1  UNL1       -0.0258
      9 C         143.1909  142.3136  167.5606 C.ar    1  UNL1       -0.0007
     10 C         142.9659  141.9547  168.9996 C.ar    1  UNL1        0.0711
     11 C         142.4193  140.6049  169.3592 C.ar    1  UNL1        0.0035
     12 C         142.0977  139.6141  168.2800 C.ar    1  UNL1       -0.0046
     13 C         142.3228  139.9731  166.8411 C.ar    1  UNL1       -0.0254
     14 C         143.2875  142.9456  170.0789 C.3     1  UNL1        0.4186
     15 F         143.6091  143.9364  171.1581 F       1  UNL1       -0.1659
     16 F         141.8579  143.3994  170.0881 F       1  UNL1       -0.1659
     17 F         144.7171  142.4917  170.0696 F       1  UNL1       -0.1659
     18 C         138.6610  138.8312  163.7905 C.3     1  UNL1        0.0730
     19 C         138.3715  138.3030  162.4168 C.3     1  UNL1        0.0294
     20 C         137.6431  139.1580  161.4226 C.3     1  UNL1        0.0666
     21 S         138.4142  140.0214  160.4687 S.3     1  UNL1       -0.0756
     22 C         138.8873  141.3781  160.8998 C.ar    1  UNL1        0.1933
     23 N         138.1306  142.6645  160.7497 N.ar    1  UNL1       -0.1220
     24 N         138.9757  143.7679  161.3137 N.ar    1  UNL1       -0.1250
     25 C         140.2547  143.1634  161.8125 C.ar    1  UNL1        0.2029
     26 N         140.2000  141.6864  161.5567 N.ar    1  UNL1       -0.2860
     27 C         141.2703  140.6923  161.8979 C.3     1  UNL1        0.1341
     28 C         141.3892  143.9056  162.4544 C.ar    1  UNL1        0.1964
     29 O         142.7765  144.0455  161.9013 O.2     1  UNL1       -0.4283
     30 C         143.5803  144.8646  162.8672 C.ar    1  UNL1        0.2849
     31 N         142.6898  145.2310  164.0173 N.ar    1  UNL1       -0.2085
     32 C         141.3357  144.6383  163.7622 C.ar    1  UNL1        0.1001
     33 C         140.1382  144.7574  164.6577 C.3     1  UNL1        0.0556
@<TRIPOS>BOND
     1     7     8    1
     2     8     9   ar
     3     9    10   ar
     4    10    14    1
     5    14    15    1
     6    14    16    1
     7    14    17    1
     8    10    11   ar
     9    11    12   ar
    10    12    13   ar
    11    13     1    1
    12     1     2    1
    13     2     3    1
    14     3     4    1
    15     4     5    1
    16     5    18    1
    17    18    19    1
    18    19    20    1
    19    20    21    1
    20    21    22    1
    21    22    23   ar
    22    23    24   ar
    23    24    25   ar
    24    25    28    1
    25    28    29   ar
    26    29    30   ar
    27    30    31   ar
    28    31    32   ar
    29    32    33    1
    30    25    26   ar
    31    26    27    1
    32     5     6    1
    33    13     8   ar
    34     3     1    1
    35    26    22   ar
    36     6     1    1
    37    32    28   ar
@<TRIPOS>MOLECULE
*****
 33 37 0 0 0
SMALL
GASTEIGER

@<TRIPOS>ATOM
      1 C         143.9288  141.5568  163.8455 C.3     1  UNL1        0.0347
      2 C         145.2258  140.8243  164.0222 C.3     1  UNL1        0.0072
      3 C         144.9933  141.6520  162.7930 C.3     1  UNL1        0.0214
      4 C         144.4825  142.5380  161.6958 C.3     1  UNL1        0.0724
      5 N         143.1022  142.9904  162.0701 N.3     1  UNL1       -0.2724
      6 C         142.7600  142.3840  163.3986 C.3     1  UNL1        0.0761
      7 C         142.7119  138.8223  164.0499 C.3     1  UNL1        0.0307
      8 C         142.7070  139.7362  165.2393 C.ar    1  UNL1       -0.0258
      9 C         142.0937  139.2829  166.5310 C.ar    1  UNL1       -0.0007
     10 C         142.0889  140.1968  167.7204 C.ar    1  UNL1        0.0711
     11 C         142.6973  141.5640  167.6182 C.ar    1  UNL1        0.0035
     12 C         143.3106  142.0173  166.3266 C.ar    1  UNL1       -0.0046
     13 C         143.3155  141.1034  165.1371 C.ar    1  UNL1       -0.0254
     14 C         141.4755  139.7435  169.0121 C.3     1  UNL1        0.4186
     15 F         140.8622  139.2901  170.3037 F       1  UNL1       -0.1659
     16 F         140.1139  140.0900  168.4871 F       1  UNL1       -0.1659
     17 F         142.8372  139.3969  169.5371 F       1  UNL1       -0.1659
     18 C         142.2191  143.8911  161.2584 C.3     1  UNL1        0.0730
     19 C         141.4918  145.0238  161.9203 C.3     1  UNL1        0.0294
     20 C         140.0585  145.2989  161.5742 C.3     1  UNL1        0.0666
     21 S         138.9693  144.9200  162.5334 S.3     1  UNL1       -0.0756
     22 C         138.5355  143.4886  162.6481 C.ar    1  UNL1        0.1933
     23 N         137.6677  142.7496  161.6730 N.ar    1  UNL1       -0.1220
     24 N         137.4891  141.3494  162.1802 N.ar    1  UNL1       -0.1250
     25 C         138.2465  141.2230  163.4688 C.ar    1  UNL1        0.2029
     26 N         138.8932  142.5452  163.7579 N.ar    1  UNL1       -0.2860
     27 C         139.7476  142.8672  164.9480 C.3     1  UNL1        0.1341
     28 C         138.3407  139.9907  164.3189 C.ar    1  UNL1        0.1964
     29 O         137.9744  139.8906  165.7701 O.2     1  UNL1       -0.4283
     30 C         138.2251  138.4803  166.2152 C.ar    1  UNL1        0.2849
     31 N         138.7463  137.7088  165.0392 N.ar    1  UNL1       -0.2085
     32 C         138.8178  138.6423  163.8672 C.ar    1  UNL1        0.1001
     33 C         139.2844  138.2892  162.4861 C.3     1  UNL1        0.0556
@<TRIPOS>BOND
     1     7     8    1
     2     8     9   ar
     3     9    10   ar
     4    10    14    1
     5    14    15    1
     6    14    16    1
     7    14    17    1
     8    10    11   ar
     9    11    12   ar
    10    12    13   ar
    11    13     1    1
    12     1     2    1
    13     2     3    1
    14     3     4    1
    15     4     5    1
    16     5    18    1
    17    18    19    1
    18    19    20    1
    19    20    21    1
    20    21    22    1
    21    22    23   ar
    22    23    24   ar
    23    24    25   ar
    24    25    28    1
    25    28    29   ar
    26    29    30   ar
    27    30    31   ar
    28    31    32   ar
    29    32    33    1
    30    25    26   ar
    31    26    27    1
    32     5     6    1
    33    13     8   ar
    34     3     1    1
    35    26    22   ar
    36     6     1    1
    37    32    28   ar
@<TRIPOS>MOLECULE
*****
 33 37 0 0 0
SMALL
GASTEIGER

@<TRIPOS>ATOM
      1 C         142.7654  140.5746  165.1055 C.3     1  UNL1        0.0347
      2 C         143.9502  141.4905  165.1914 C.3     1  UNL1        0.0072
      3 C         143.8658  140.4745  164.0911 C.3     1  UNL1        0.0214
      4 C         143.5090  139.3829  163.1263 C.3     1  UNL1        0.0724
      5 N         142.1881  138.8082  163.5445 N.3     1  UNL1       -0.2724
      6 C         141.7286  139.5447  164.7677 C.3     1  UNL1        0.0761
      7 C         142.9393  139.1285  167.7283 C.3     1  UNL1        0.0307
      8 C         142.1451  140.3967  167.6222 C.ar    1  UNL1       -0.0258
      9 C         141.4379  140.9417  168.8275 C.ar    1  UNL1       -0.0007
     10 C         140.6438  142.2099  168.7214 C.ar    1  UNL1        0.0711
     11 C         140.5569  142.9329  167.4101 C.ar    1  UNL1        0.0035
     12 C         141.2641  142.3878  166.2048 C.ar    1  UNL1       -0.0046
     13 C         142.0582  141.1197  166.3109 C.ar    1  UNL1       -0.0254
     14 C         139.9366  142.7549  169.9267 C.3     1  UNL1        0.4186
     15 F         139.2294  143.3000  171.1320 F       1  UNL1       -0.1659
     16 F         139.1537  141.4808  170.0435 F       1  UNL1       -0.1659
     17 F         140.7194  144.0291  169.8099 F       1  UNL1       -0.1659
     18 C         141.4553  137.6927  162.8596 C.3     1  UNL1        0.0730
     19 C         140.2033  137.1334  163.4675 C.3     1  UNL1        0.0294
     20 C         138.9466  137.9522  163.4830 C.3     1  UNL1        0.0666
     21 S         138.5158  138.6884  162.2491 S.3     1  UNL1       -0.0756
     22 C         138.2868  140.1700  162.3013 C.ar    1  UNL1        0.1933
     23 N         137.0503  140.8537  162.8050 N.ar    1  UNL1       -0.1220
     24 N         137.2533  142.3340  162.6739 N.ar    1  UNL1       -0.1250
     25 C         138.6151  142.5653  162.0892 C.ar    1  UNL1        0.2029
     26 N         139.2538  141.2277  161.8589 N.ar    1  UNL1       -0.2860
     27 C         140.6199  140.9899  161.2867 C.3     1  UNL1        0.1341
     28 C         139.2302  143.8997  161.7878 C.ar    1  UNL1        0.1964
     29 O         139.6461  144.3932  160.4337 O.2     1  UNL1       -0.4283
     30 C         140.2104  145.7734  160.5965 C.ar    1  UNL1        0.2849
     31 N         140.1433  146.1330  162.0512 N.ar    1  UNL1       -0.2085
     32 C         139.5376  144.9750  162.7874 C.ar    1  UNL1        0.1001
     33 C         139.2837  144.9046  164.2641 C.3     1  UNL1        0.0556
@<TRIPOS>BOND
     1     7     8    1
     2     8     9   ar
     3     9    10   ar
     4    10    14    1
     5    14    15    1
     6    14    16    1
     7    14    17    1
     8    10    11   ar
     9    11    12   ar
    10    12    13   ar
    11    13     1    1
    12     1     2    1
    13     2     3    1
    14     3     4    1
    15     4     5    1
    16     5    18    1
    17    18    19    1
    18    19    20    1
    19    20    21    1
    20    21    22    1
    21    22    23   ar
    22    23    24   ar
    23    24    25   ar
    24    25    28    1
    25    28    29   ar
    26    29    30   ar
    27    30    31   ar
    28    31    32   ar
    29    32    33    1
    30    25    26   ar
    31    26    27    1
    32     5     6    1
    33    13     8   ar
    34     3     1    1
    35    26    22   ar
    36     6     1    1
    37    32    28   ar
@<TRIPOS>MOLECULE
*****
 33 37 0 0 0
SMALL
GASTEIGER

@<TRIPOS>ATOM
      1 C         143.7046  140.4630  164.3886 C.3     1  UNL1        0.0347
      2 C         144.5092  139.2482  164.7445 C.3     1  UNL1        0.0072
      3 C         145.1762  140.4271  164.1001 C.3     1  UNL1        0.0214
      4 C         145.5553  141.7304  163.4616 C.3     1  UNL1        0.0724
      5 N         144.3180  142.5718  163.3556 N.3     1  UNL1       -0.2724
      6 C         143.1743  141.7886  163.9284 C.3     1  UNL1        0.0761
      7 C         142.7004  141.2565  167.1019 C.3     1  UNL1        0.0307
      8 C         141.8905  140.3304  166.2437 C.ar    1  UNL1       -0.0258
      9 C         140.5786  139.8011  166.7422 C.ar    1  UNL1       -0.0007
     10 C         139.7687  138.8750  165.8840 C.ar    1  UNL1        0.0711
     11 C         140.2707  138.4783  164.5274 C.ar    1  UNL1        0.0035
     12 C         141.5827  139.0076  164.0290 C.ar    1  UNL1       -0.0046
     13 C         142.3926  139.9337  164.8871 C.ar    1  UNL1       -0.0254
     14 C         138.4566  138.3457  166.3826 C.3     1  UNL1        0.4186
     15 F         137.1447  137.8164  166.8811 F       1  UNL1       -0.1659
     16 F         138.4704  139.3559  167.4912 F       1  UNL1       -0.1659
     17 F         138.4429  137.3354  165.2739 F       1  UNL1       -0.1659
     18 C         144.2386  143.9539  162.7780 C.3     1  UNL1        0.0730
     19 C         143.6979  145.0825  163.6050 C.3     1  UNL1        0.0294
     20 C         142.2232  145.1872  163.8583 C.3     1  UNL1        0.0666
     21 S         141.3007  145.6097  162.7535 S.3     1  UNL1       -0.0756
     22 C         140.1452  144.7353  162.3656 C.ar    1  UNL1        0.1933
     23 N         138.7537  144.8156  162.9199 N.ar    1  UNL1       -0.1220
     24 N         137.9269  143.7571  162.2523 N.ar    1  UNL1       -0.1250
     25 C         138.8074  143.0225  161.2853 C.ar    1  UNL1        0.2029
     26 N         140.1784  143.6270  161.3554 N.ar    1  UNL1       -0.2860
     27 C         141.3728  143.1985  160.5556 C.3     1  UNL1        0.1341
     28 C         138.3902  141.8833  160.4032 C.ar    1  UNL1        0.1964
     29 O         138.3511  141.8977  158.9038 O.2     1  UNL1       -0.4283
     30 C         137.8755  140.5530  158.4395 C.ar    1  UNL1        0.2849
     31 N         137.6207  139.7074  159.6520 N.ar    1  UNL1       -0.2085
     32 C         137.9388  140.5296  160.8656 C.ar    1  UNL1        0.1001
     33 C         137.8254  140.0774  162.2913 C.3     1  UNL1        0.0556
@<TRIPOS>BOND
     1     7     8    1
     2     8     9   ar
     3     9    10   ar
     4    10    14    1
     5    14    15    1
     6    14    16    1
     7    14    17    1
     8    10    11   ar
     9    11    12   ar
    10    12    13   ar
    11    13     1    1
    12     1     2    1
    13     2     3    1
    14     3     4    1
    15     4     5    1
    16     5    18    1
    17    18    19    1
    18    19    20    1
    19    20    21    1
    20    21    22    1
    21    22    23   ar
    22    23    24   ar
    23    24    25   ar
    24    25    28    1
    25    28    29   ar
    26    29    30   ar
    27    30    31   ar
    28    31    32   ar
    29    32    33    1
    30    25    26   ar
    31    26    27    1
    32     5     6    1
    33    13     8   ar
    34     3     1    1
    35    26    22   ar
    36     6     1    1
    37    32    28   ar
@<TRIPOS>MOLECULE
*****
 33 37 0 0 0
SMALL
GASTEIGER

@<TRIPOS>ATOM
      1 C         141.9801  138.6267  164.4932 C.3     1  UNL1        0.0347
      2 C         141.0246  137.4718  164.5503 C.3     1  UNL1        0.0072
      3 C         141.8050  137.7384  163.2973 C.3     1  UNL1        0.0214
      4 C         142.7041  138.2443  162.2085 C.3     1  UNL1        0.0724
      5 N         143.4348  139.4454  162.7315 N.3     1  UNL1       -0.2724
      6 C         142.9874  139.6817  164.1435 C.3     1  UNL1        0.0761
      7 C         143.9932  138.0693  166.6466 C.3     1  UNL1        0.0307
      8 C         142.7390  138.8257  166.9701 C.ar    1  UNL1       -0.0258
      9 C         142.4912  139.3034  168.3702 C.ar    1  UNL1       -0.0007
     10 C         141.2370  140.0599  168.6937 C.ar    1  UNL1        0.0711
     11 C         140.2304  140.3386  167.6171 C.ar    1  UNL1        0.0035
     12 C         140.4782  139.8609  166.2169 C.ar    1  UNL1       -0.0046
     13 C         141.7324  139.1044  165.8935 C.ar    1  UNL1       -0.0254
     14 C         140.9893  140.5376  170.0939 C.3     1  UNL1        0.4186
     15 F         140.7415  141.0153  171.4940 F       1  UNL1       -0.1659
     16 F         139.7660  141.2697  169.6276 F       1  UNL1       -0.1659
     17 F         142.2126  139.8055  170.5601 F       1  UNL1       -0.1659
     18 C         144.4371  140.2661  161.9751 C.3     1  UNL1        0.0730
     19 C         145.1438  141.4009  162.6553 C.3     1  UNL1        0.0294
     20 C         145.1706  142.7581  162.0171 C.3     1  UNL1        0.0666
     21 S         144.2011  143.8139  162.4592 S.3     1  UNL1       -0.0756
     22 C         142.9131  143.4202  163.1197 C.ar    1  UNL1        0.1933
     23 N         142.5685  143.6154  164.5664 N.ar    1  UNL1       -0.1220
     24 N         141.1862  143.0781  164.7903 N.ar    1  UNL1       -0.1250
     25 C         140.6763  142.5506  163.4819 C.ar    1  UNL1        0.2029
     26 N         141.7437  142.7621  162.4494 N.ar    1  UNL1       -0.2860
     27 C         141.6568  142.3821  161.0009 C.3     1  UNL1        0.1341
     28 C         139.3347  141.9221  163.2472 C.ar    1  UNL1        0.1964
     29 O         139.0664  140.4571  163.0696 O.2     1  UNL1       -0.4283
     30 C         137.5917  140.2778  162.8615 C.ar    1  UNL1        0.2849
     31 N         136.9487  141.6321  162.9106 N.ar    1  UNL1       -0.2085
     32 C         138.0259  142.6483  163.1489 C.ar    1  UNL1        0.1001
     33 C         137.8289  144.1306  163.2681 C.3     1  UNL1        0.0556
@<TRIPOS>BOND
     1     7     8    1
     2     8     9   ar
     3     9    10   ar
     4    10    14    1
     5    14    15    1
     6    14    16    1
     7    14    17    1
     8    10    11   ar
     9    11    12   ar
    10    12    13   ar
    11    13     1    1
    12     1     2    1
    13     2     3    1
    14     3     4    1
    15     4     5    1
    16     5    18    1
    17    18    19    1
    18    19    20    1
    19    20    21    1
    20    21    22    1
    21    22    23   ar
    22    23    24   ar
    23    24    25   ar
    24    25    28    1
    25    28    29   ar
    26    29    30   ar
    27    30    31   ar
    28    31    32   ar
    29    32    33    1
    30    25    26   ar
    31    26    27    1
    32     5     6    1
    33    13     8   ar
    34     3     1    1
    35    26    22   ar
    36     6     1    1
    37    32    28   ar
@<TRIPOS>MOLECULE
*****
 33 37 0 0 0
SMALL
GASTEIGER

@<TRIPOS>ATOM
      1 C         139.7006  143.3200  164.0298 C.3     1  UNL1        0.0347
      2 C         138.9045  144.2031  164.9443 C.3     1  UNL1        0.0072
      3 C         139.7617  144.8106  163.8737 C.3     1  UNL1        0.0214
      4 C         140.6883  145.1199  162.7355 C.3     1  UNL1        0.0724
      5 N         141.2000  143.8204  162.1882 N.3     1  UNL1       -0.2724
      6 C         140.5895  142.7081  162.9881 C.3     1  UNL1        0.0761
      7 C         137.6743  141.6164  162.6184 C.3     1  UNL1        0.0307
      8 C         138.2434  141.1712  163.9329 C.ar    1  UNL1       -0.0258
      9 C         137.7994  139.8743  164.5417 C.ar    1  UNL1       -0.0007
     10 C         138.3684  139.4291  165.8563 C.ar    1  UNL1        0.0711
     11 C         139.3815  140.2809  166.5620 C.ar    1  UNL1        0.0035
     12 C         139.8256  141.5778  165.9532 C.ar    1  UNL1       -0.0046
     13 C         139.2565  142.0230  164.6386 C.ar    1  UNL1       -0.0254
     14 C         137.9243  138.1321  166.4651 C.3     1  UNL1        0.4186
     15 F         137.4803  136.8351  167.0739 F       1  UNL1       -0.1659
     16 F         137.3686  138.8755  167.6433 F       1  UNL1       -0.1659
     17 F         138.4801  137.3886  165.2868 F       1  UNL1       -0.1659
     18 C         142.1546  143.6613  161.0420 C.3     1  UNL1        0.0730
     19 C         143.5859  143.2964  161.3032 C.3     1  UNL1        0.0294
     20 C         144.1316  143.3531  162.6992 C.3     1  UNL1        0.0666
     21 S         144.2146  142.1024  163.5232 S.3     1  UNL1       -0.0756
     22 C         143.9221  142.1523  164.9937 C.ar    1  UNL1        0.1933
     23 N         144.1852  143.3135  165.9061 N.ar    1  UNL1       -0.1220
     24 N         143.7409  142.9286  167.2860 N.ar    1  UNL1       -0.1250
     25 C         143.2031  141.5296  167.2265 C.ar    1  UNL1        0.2029
     26 N         143.3151  141.0499  165.8097 N.ar    1  UNL1       -0.2860
     27 C         142.8940  139.7039  165.2988 C.3     1  UNL1        0.1341
     28 C         142.6504  140.7477  168.3811 C.ar    1  UNL1        0.1964
     29 O         143.0543  139.3591  168.7795 O.2     1  UNL1       -0.4283
     30 C         142.2502  138.9702  169.9846 C.ar    1  UNL1        0.2849
     31 N         141.3493  140.1184  170.3310 N.ar    1  UNL1       -0.2085
     32 C         141.5966  141.2169  169.3399 C.ar    1  UNL1        0.1001
     33 C         140.9106  142.5506  169.3126 C.3     1  UNL1        0.0556
@<TRIPOS>BOND
     1     7     8    1
     2     8     9   ar
     3     9    10   ar
     4    10    14    1
     5    14    15    1
     6    14    16    1
     7    14    17    1
     8    10    11   ar
     9    11    12   ar
    10    12    13   ar
    11    13     1    1
    12     1     2    1
    13     2     3    1
    14     3     4    1
    15     4     5    1
    16     5    18    1
    17    18    19    1
    18    19    20    1
    19    20    21    1
    20    21    22    1
    21    22    23   ar
    22    23    24   ar
    23    24    25   ar
    24    25    28    1
    25    28    29   ar
    26    29    30   ar
    27    30    31   ar
    28    31    32   ar
    29    32    33    1
    30    25    26   ar
    31    26    27    1
    32     5     6    1
    33    13     8   ar
    34     3     1    1
    35    26    22   ar
    36     6     1    1
    37    32    28   ar
@<TRIPOS>MOLECULE
*****
 33 37 0 0 0
SMALL
GASTEIGER

@<TRIPOS>ATOM
      1 C         139.1623  139.0168  164.7857 C.3     1  UNL1        0.0347
      2 C         139.5992  137.5820  164.8037 C.3     1  UNL1        0.0072
      3 C         138.8557  138.1248  163.6194 C.3     1  UNL1        0.0214
      4 C         138.1127  138.9350  162.5990 C.3     1  UNL1        0.0724
      5 N         137.9602  140.3278  163.1345 N.3     1  UNL1       -0.2724
      6 C         138.6088  140.3784  164.4860 C.3     1  UNL1        0.0761
      7 C         142.1144  139.4264  165.1280 C.3     1  UNL1        0.0307
      8 C         141.1957  139.5721  166.3047 C.ar    1  UNL1       -0.0258
      9 C         141.7530  139.9226  167.6524 C.ar    1  UNL1       -0.0007
     10 C         140.8342  140.0683  168.8291 C.ar    1  UNL1        0.0711
     11 C         139.3581  139.8636  168.6581 C.ar    1  UNL1        0.0035
     12 C         138.8009  139.5131  167.3103 C.ar    1  UNL1       -0.0046
     13 C         139.7196  139.3673  166.1336 C.ar    1  UNL1       -0.0254
     14 C         141.3915  140.4189  170.1770 C.3     1  UNL1        0.4186
     15 F         141.9489  140.7693  171.5247 F       1  UNL1       -0.1659
     16 F         141.9449  139.0310  170.3090 F       1  UNL1       -0.1659
     17 F         140.8381  141.8067  170.0449 F       1  UNL1       -0.1659
     18 C         137.2785  141.4696  162.4403 C.3     1  UNL1        0.0730
     19 C         138.0581  142.6975  162.0739 C.3     1  UNL1        0.0294
     20 C         137.8872  143.9590  162.8673 C.3     1  UNL1        0.0666
     21 S         138.9962  144.9677  162.9202 S.3     1  UNL1       -0.0756
     22 C         140.3800  144.5843  162.4865 C.ar    1  UNL1        0.1933
     23 N         141.0682  145.0368  161.2328 N.ar    1  UNL1       -0.1220
     24 N         142.4320  144.4134  161.2018 N.ar    1  UNL1       -0.1250
     25 C         142.5869  143.5755  162.4363 C.ar    1  UNL1        0.2029
     26 N         141.3186  143.6811  163.2302 N.ar    1  UNL1       -0.2860
     27 C         141.0383  143.0027  164.5384 C.3     1  UNL1        0.1341
     28 C         143.7974  142.7728  162.8110 C.ar    1  UNL1        0.1964
     29 O         144.6414  142.9696  164.0353 O.2     1  UNL1       -0.4283
     30 C         145.7421  141.9509  164.0082 C.ar    1  UNL1        0.2849
     31 N         145.5783  141.1245  162.7671 N.ar    1  UNL1       -0.2085
     32 C         144.3765  141.6325  162.0272 C.ar    1  UNL1        0.1001
     33 C         143.8467  141.0946  160.7311 C.3     1  UNL1        0.0556
@<TRIPOS>BOND
     1     7     8    1
     2     8     9   ar
     3     9    10   ar
     4    10    14    1
     5    14    15    1
     6    14    16    1
     7    14    17    1
     8    10    11   ar
     9    11    12   ar
    10    12    13   ar
    11    13     1    1
    12     1     2    1
    13     2     3    1
    14     3     4    1
    15     4     5    1
    16     5    18    1
    17    18    19    1
    18    19    20    1
    19    20    21    1
    20    21    22    1
    21    22    23   ar
    22    23    24   ar
    23    24    25   ar
    24    25    28    1
    25    28    29   ar
    26    29    30   ar
    27    30    31   ar
    28    31    32   ar
    29    32    33    1
    30    25    26   ar
    31    26    27    1
    32     5     6    1
    33    13     8   ar
    34     3     1    1
    35    26    22   ar
    36     6     1    1
    37    32    28   ar
@<TRIPOS>MOLECULE
*****
 33 37 0 0 0
SMALL
GASTEIGER

@<TRIPOS>ATOM
      1 C         139.8588  142.4620  162.3063 C.3     1  UNL1        0.0347
      2 C         138.8348  142.1881  161.2450 C.3     1  UNL1        0.0072
      3 C         139.7945  143.3298  161.0845 C.3     1  UNL1        0.0214
      4 C         140.8637  144.3751  161.2016 C.3     1  UNL1        0.0724
      5 N         141.5889  144.1535  162.4958 N.3     1  UNL1       -0.2724
      6 C         140.9678  142.9712  163.1785 C.3     1  UNL1        0.0761
      7 C         137.6370  142.8557  164.2834 C.3     1  UNL1        0.0307
      8 C         138.3408  141.5337  164.1995 C.ar    1  UNL1       -0.0258
      9 C         137.9337  140.4086  165.1041 C.ar    1  UNL1       -0.0007
     10 C         138.6376  139.0866  165.0202 C.ar    1  UNL1        0.0711
     11 C         139.7484  138.8898  164.0317 C.ar    1  UNL1        0.0035
     12 C         140.1555  140.0149  163.1271 C.ar    1  UNL1       -0.0046
     13 C         139.4516  141.3369  163.2110 C.ar    1  UNL1       -0.0254
     14 C         138.2305  137.9614  165.9248 C.3     1  UNL1        0.4186
     15 F         137.8234  136.8364  166.8295 F       1  UNL1       -0.1659
     16 F         137.3960  138.9118  166.7313 F       1  UNL1       -0.1659
     17 F         139.0649  137.0111  165.1184 F       1  UNL1       -0.1659
     18 C         142.7342  144.9708  163.0159 C.3     1  UNL1        0.0730
     19 C         144.1439  144.4980  162.8179 C.3     1  UNL1        0.0294
     20 C         144.4059  143.1741  162.1632 C.3     1  UNL1        0.0666
     21 S         145.1530  142.1056  162.9048 S.3     1  UNL1       -0.0756
     22 C         144.4176  141.1779  163.8261 C.ar    1  UNL1        0.1933
     23 N         144.0497  139.7534  163.5337 N.ar    1  UNL1       -0.1220
     24 N         143.3257  139.2071  164.7283 N.ar    1  UNL1       -0.1250
     25 C         143.2461  140.2939  165.7591 C.ar    1  UNL1        0.2029
     26 N         143.9210  141.5119  165.2014 N.ar    1  UNL1       -0.2860
     27 C         144.0725  142.8322  165.8972 C.3     1  UNL1        0.1341
     28 C         142.6044  140.1822  167.1103 C.ar    1  UNL1        0.1964
     29 O         143.0217  139.2519  168.2104 O.2     1  UNL1       -0.4283
     30 C         142.1079  139.4760  169.3786 C.ar    1  UNL1        0.2849
     31 N         141.1257  140.5448  169.0005 N.ar    1  UNL1       -0.2085
     32 C         141.4326  140.9812  167.5986 C.ar    1  UNL1        0.1001
     33 C         140.6968  142.0322  166.8214 C.3     1  UNL1        0.0556
@<TRIPOS>BOND
     1     7     8    1
     2     8     9   ar
     3     9    10   ar
     4    10    14    1
     5    14    15    1
     6    14    16    1
     7    14    17    1
     8    10    11   ar
     9    11    12   ar
    10    12    13   ar
    11    13     1    1
    12     1     2    1
    13     2     3    1
    14     3     4    1
    15     4     5    1
    16     5    18    1
    17    18    19    1
    18    19    20    1
    19    20    21    1
    20    21    22    1
    21    22    23   ar
    22    23    24   ar
    23    24    25   ar
    24    25    28    1
    25    28    29   ar
    26    29    30   ar
    27    30    31   ar
    28    31    32   ar
    29    32    33    1
    30    25    26   ar
    31    26    27    1
    32     5     6    1
    33    13     8   ar
    34     3     1    1
    35    26    22   ar
    36     6     1    1
    37    32    28   ar
