@<TRIPOS>MOLECULE
*****
 44 49 0 0 0
SMALL
GASTEIGER

@<TRIPOS>ATOM
      1 N         140.4796  140.9743  160.4496 N.am    1  UNL1       -0.2655
      2 C         139.7426  141.9339  159.5629 C.2     1  UNL1        0.3076
      3 O         138.7498  142.8902  160.1542 O.2     1  UNL1       -0.2522
      4 N         139.9985  141.9370  158.0848 N.am    1  UNL1       -0.2681
      5 H         140.6501  141.3093  157.6967 H       1  UNL1        0.1564
      6 C         139.2614  142.8966  157.1982 C.ar    1  UNL1        0.0517
      7 C         137.8784  142.5655  156.7209 C.ar    1  UNL1        0.0170
      8 C         137.1413  143.5250  155.8343 C.ar    1  UNL1        0.0309
      9 C         137.7872  144.8156  155.4250 C.ar    1  UNL1        0.1441
     10 F         137.0501  145.7750  154.5385 F       1  UNL1       -0.2042
     11 C         139.1701  145.1466  155.9024 C.ar    1  UNL1        0.1000
     12 C         139.9072  144.1871  156.7890 C.ar    1  UNL1        0.0208
     13 C         139.8160  146.4370  155.4932 C.3     1  UNL1        0.4207
     14 F         140.4619  147.7275  155.0839 F       1  UNL1       -0.1658
     15 F         139.5772  146.9920  156.8662 F       1  UNL1       -0.1658
     16 F         140.0548  145.8821  154.1202 F       1  UNL1       -0.1658
     17 C         140.2237  140.9712  161.9276 C.3     1  UNL1        0.0771
     18 C         139.0592  140.3269  162.6194 C.3     1  UNL1        0.0202
     19 C         139.2033  140.5693  164.0927 C.3     1  UNL1        0.0058
     20 C         140.4569  141.3634  164.3113 C.3     1  UNL1        0.0207
     21 C         141.7363  142.1408  164.2179 C.3     1  UNL1        0.0061
     22 C         141.0876  141.6118  162.9732 C.3     1  UNL1        0.0223
     23 C         140.3335  141.4432  165.8042 C.ar    1  UNL1       -0.0196
     24 C         140.9152  142.6116  166.5434 C.ar    1  UNL1       -0.0040
     25 C         140.7918  142.6914  168.0362 C.ar    1  UNL1        0.0057
     26 C         140.0866  141.6028  168.7897 C.ar    1  UNL1        0.0715
     27 C         139.8114  141.4100  170.2516 C.ar    1  UNL1        0.1674
     28 N         140.2168  142.3413  171.3554 N.pl3   1  UNL1       -0.3400
     29 N         139.0595  140.1225  170.4158 N.ar    1  UNL1       -0.0623
     30 O         138.8701  139.5196  169.0554 O.2     1  UNL1       -0.3522
     31 C         139.5048  140.4345  168.0504 C.ar    1  UNL1        0.1778
     32 C         139.6283  140.3547  166.5577 C.ar    1  UNL1        0.0360
     33 H         140.7107  143.1669  171.1464 H       1  UNL1        0.1438
     34 H         139.9891  142.1268  172.2889 H       1  UNL1        0.1438
     35 C         141.4724  140.0180  159.8582 C.3     1  UNL1        0.0963
     36 C         141.3191  138.5430  160.0838 C.3     1  UNL1        0.0389
     37 C         142.3498  137.7942  160.8755 C.3     1  UNL1        0.0739
     38 C         143.0318  138.9142  166.7305 C.3     1  UNL1        0.0897
     39 N         142.8613  138.6342  165.2668 N.3     1  UNL1       -0.2691
     40 C         141.6816  137.8415  164.7872 C.3     1  UNL1        0.0897
     41 C         141.5111  137.5615  163.3235 C.3     1  UNL1        0.0897
     42 N         142.5203  138.0742  162.3392 N.3     1  UNL1       -0.2703
     43 C         143.7000  138.8669  162.8188 C.3     1  UNL1        0.0897
     44 C         143.8705  139.1469  164.2825 C.3     1  UNL1        0.0897
@<TRIPOS>BOND
     1    38    39    1
     2    39    40    1
     3    40    41    1
     4    41    42    1
     5    42    37    1
     6    37    36    1
     7    36    35    1
     8    35     1    1
     9     1     2   am
    10     2     3    2
    11     2     4   am
    12     4     6    1
    13     6     7   ar
    14     7     8   ar
    15     8     9   ar
    16     9    10    1
    17     9    11   ar
    18    11    13    1
    19    13    14    1
    20    13    15    1
    21    13    16    1
    22    11    12   ar
    23    17     1    1
    24    17    18    1
    25    18    19    1
    26    19    20    1
    27    20    23    1
    28    23    24   ar
    29    24    25   ar
    30    25    26   ar
    31    26    27   ar
    32    27    28    1
    33    27    29   ar
    34    29    30   ar
    35    30    31   ar
    36    31    32   ar
    37    20    21    1
    38    22    21    1
    39    42    43    1
    40    43    44    1
    41    44    39    1
    42    12     6   ar
    43    22    17    1
    44    22    20    1
    45    32    23   ar
    46    31    26   ar
    47     4     5    1
    48    28    33    1
    49    28    34    1
@<TRIPOS>MOLECULE
*****
 44 49 0 0 0
SMALL
GASTEIGER

@<TRIPOS>ATOM
      1 N         141.9119  143.3481  160.8322 N.am    1  UNL1       -0.2655
      2 C         140.8767  143.8148  159.8521 C.2     1  UNL1        0.3076
      3 O         139.4670  144.0524  160.3063 O.2     1  UNL1       -0.2522
      4 N         141.2512  144.0439  158.4177 N.am    1  UNL1       -0.2681
      5 H         142.1764  143.8880  158.1196 H       1  UNL1        0.1564
      6 C         140.2159  144.5106  157.4377 C.ar    1  UNL1        0.0517
      7 C         139.2575  143.5272  156.8340 C.ar    1  UNL1        0.0170
      8 C         138.2222  143.9938  155.8540 C.ar    1  UNL1        0.0309
      9 C         138.1453  145.4439  155.4777 C.ar    1  UNL1        0.1441
     10 F         137.1101  145.9105  154.4977 F       1  UNL1       -0.2042
     11 C         139.1037  146.4273  156.0814 C.ar    1  UNL1        0.1000
     12 C         140.1390  145.9606  157.0614 C.ar    1  UNL1        0.0208
     13 C         139.0269  147.8772  155.7051 C.3     1  UNL1        0.4207
     14 F         138.9500  149.3272  155.3289 F       1  UNL1       -0.1658
     15 F         139.5067  147.5442  154.3235 F       1  UNL1       -0.1658
     16 F         138.5470  148.2103  157.0868 F       1  UNL1       -0.1658
     17 C         141.5374  143.1190  162.2665 C.3     1  UNL1        0.0771
     18 C         141.5717  144.1438  163.3612 C.3     1  UNL1        0.0202
     19 C         141.1184  143.4830  164.6292 C.3     1  UNL1        0.0058
     20 C         140.8039  142.0497  164.3181 C.3     1  UNL1        0.0207
     21 C         140.5741  140.6954  163.7156 C.3     1  UNL1        0.0061
     22 C         141.0629  141.8247  162.8578 C.3     1  UNL1        0.0223
     23 C         140.3986  141.6721  165.7121 C.ar    1  UNL1       -0.0196
     24 C         139.7919  140.3263  165.9782 C.ar    1  UNL1       -0.0040
     25 C         139.3866  139.9487  167.3721 C.ar    1  UNL1        0.0057
     26 C         139.5880  140.9168  168.5000 C.ar    1  UNL1        0.0715
     27 C         139.2886  140.8252  169.9670 C.ar    1  UNL1        0.1674
     28 N         138.6752  139.6506  170.6699 N.pl3   1  UNL1       -0.3400
     29 N         139.7102  142.1143  170.6075 N.ar    1  UNL1       -0.0623
     30 O         140.2703  143.0027  169.5365 O.2     1  UNL1       -0.3522
     31 C         140.1947  142.2626  168.2339 C.ar    1  UNL1        0.1778
     32 C         140.6000  142.6402  166.8400 C.ar    1  UNL1        0.0360
     33 H         138.4310  138.8445  170.1603 H       1  UNL1        0.1438
     34 H         138.5168  139.6858  171.6410 H       1  UNL1        0.1438
     35 C         143.3216  143.1105  160.3779 C.3     1  UNL1        0.0963
     36 C         144.4545  143.2315  161.3536 C.3     1  UNL1        0.0389
     37 C         145.2256  142.0117  161.7626 C.3     1  UNL1        0.0739
     38 C         142.9369  138.2386  165.8277 C.3     1  UNL1        0.0897
     39 N         143.5091  139.1819  164.8114 N.3     1  UNL1       -0.2691
     40 C         143.9439  140.5566  165.2252 C.3     1  UNL1        0.0897
     41 C         144.5160  141.4999  164.2089 C.3     1  UNL1        0.0897
     42 N         144.6535  141.0685  162.7788 N.3     1  UNL1       -0.2703
     43 C         144.2187  139.6938  162.3651 C.3     1  UNL1        0.0897
     44 C         143.6465  138.7505  163.3813 C.3     1  UNL1        0.0897
@<TRIPOS>BOND
     1    38    39    1
     2    39    40    1
     3    40    41    1
     4    41    42    1
     5    42    37    1
     6    37    36    1
     7    36    35    1
     8    35     1    1
     9     1     2   am
    10     2     3    2
    11     2     4   am
    12     4     6    1
    13     6     7   ar
    14     7     8   ar
    15     8     9   ar
    16     9    10    1
    17     9    11   ar
    18    11    13    1
    19    13    14    1
    20    13    15    1
    21    13    16    1
    22    11    12   ar
    23    17     1    1
    24    17    18    1
    25    18    19    1
    26    19    20    1
    27    20    23    1
    28    23    24   ar
    29    24    25   ar
    30    25    26   ar
    31    26    27   ar
    32    27    28    1
    33    27    29   ar
    34    29    30   ar
    35    30    31   ar
    36    31    32   ar
    37    20    21    1
    38    22    21    1
    39    42    43    1
    40    43    44    1
    41    44    39    1
    42    12     6   ar
    43    22    17    1
    44    22    20    1
    45    32    23   ar
    46    31    26   ar
    47     4     5    1
    48    28    33    1
    49    28    34    1
@<TRIPOS>MOLECULE
*****
 44 49 0 0 0
SMALL
GASTEIGER

@<TRIPOS>ATOM
      1 N         139.6472  138.6534  161.1236 N.am    1  UNL1       -0.2655
      2 C         140.7968  138.5230  160.1690 C.2     1  UNL1        0.3076
      3 O         142.2005  138.4430  160.6918 O.2     1  UNL1       -0.2522
      4 N         140.5428  138.4726  158.6914 N.am    1  UNL1       -0.2681
      5 H         139.6216  138.5251  158.3482 H       1  UNL1        0.1564
      6 C         141.6925  138.3422  157.7369 C.ar    1  UNL1        0.0517
      7 C         142.5131  139.5468  157.3822 C.ar    1  UNL1        0.0170
      8 C         143.6628  139.4165  156.4277 C.ar    1  UNL1        0.0309
      9 C         143.9921  138.0816  155.8278 C.ar    1  UNL1        0.1441
     10 F         145.1417  137.9513  154.8734 F       1  UNL1       -0.2042
     11 C         143.1715  136.8771  156.1825 C.ar    1  UNL1        0.1000
     12 C         142.0218  137.0074  157.1370 C.ar    1  UNL1        0.0208
     13 C         143.5007  135.5423  155.5827 C.3     1  UNL1        0.4207
     14 F         143.8298  134.2074  154.9828 F       1  UNL1       -0.1658
     15 F         143.9952  135.0650  156.9160 F       1  UNL1       -0.1658
     16 F         143.0062  136.0195  154.2493 F       1  UNL1       -0.1658
     17 C         139.9011  138.7038  162.6011 C.3     1  UNL1        0.0771
     18 C         139.6239  137.6028  163.5814 C.3     1  UNL1        0.0202
     19 C         140.0284  138.0826  164.9438 C.3     1  UNL1        0.0058
     20 C         140.5555  139.4801  164.8055 C.3     1  UNL1        0.0207
     21 C         141.0184  140.8365  164.3630 C.3     1  UNL1        0.0061
     22 C         140.4769  139.8640  163.3576 C.3     1  UNL1        0.0223
     23 C         140.8632  139.6763  166.2605 C.ar    1  UNL1       -0.0196
     24 C         142.2832  139.6219  166.7408 C.ar    1  UNL1       -0.0040
     25 C         142.5908  139.8181  168.1957 C.ar    1  UNL1        0.0057
     26 C         141.4785  140.0686  169.1703 C.ar    1  UNL1        0.0715
     27 C         141.4755  140.2971  170.6529 C.ar    1  UNL1        0.1674
     28 N         142.6824  140.3251  171.5431 N.pl3   1  UNL1       -0.3400
     29 N         140.0536  140.4926  171.0888 N.ar    1  UNL1       -0.0623
     30 O         139.1779  140.3850  169.8757 O.2     1  UNL1       -0.3522
     31 C         140.0585  140.1229  168.6901 C.ar    1  UNL1        0.1778
     32 C         139.7509  139.9268  167.2351 C.ar    1  UNL1        0.0360
     33 H         143.5790  140.1854  171.1613 H       1  UNL1        0.1438
     34 H         142.5779  140.4833  172.5092 H       1  UNL1        0.1438
     35 C         138.2435  138.7333  160.6007 C.3     1  UNL1        0.0963
     36 C         137.4588  140.0030  160.7497 C.3     1  UNL1        0.0389
     37 C         138.1452  141.3295  160.6113 C.3     1  UNL1        0.0739
     38 C         138.6968  144.9334  165.3766 C.3     1  UNL1        0.0897
     39 N         138.5589  144.0324  164.1853 N.3     1  UNL1       -0.2691
     40 C         137.6587  142.8344  164.2512 C.3     1  UNL1        0.0897
     41 C         137.5208  141.9334  163.0599 C.3     1  UNL1        0.0897
     42 N         138.2831  142.2304  161.8026 N.3     1  UNL1       -0.2703
     43 C         139.1834  143.4285  161.7367 C.3     1  UNL1        0.0897
     44 C         139.3213  144.3294  162.9280 C.3     1  UNL1        0.0897
@<TRIPOS>BOND
     1    38    39    1
     2    39    40    1
     3    40    41    1
     4    41    42    1
     5    42    37    1
     6    37    36    1
     7    36    35    1
     8    35     1    1
     9     1     2   am
    10     2     3    2
    11     2     4   am
    12     4     6    1
    13     6     7   ar
    14     7     8   ar
    15     8     9   ar
    16     9    10    1
    17     9    11   ar
    18    11    13    1
    19    13    14    1
    20    13    15    1
    21    13    16    1
    22    11    12   ar
    23    17     1    1
    24    17    18    1
    25    18    19    1
    26    19    20    1
    27    20    23    1
    28    23    24   ar
    29    24    25   ar
    30    25    26   ar
    31    26    27   ar
    32    27    28    1
    33    27    29   ar
    34    29    30   ar
    35    30    31   ar
    36    31    32   ar
    37    20    21    1
    38    22    21    1
    39    42    43    1
    40    43    44    1
    41    44    39    1
    42    12     6   ar
    43    22    17    1
    44    22    20    1
    45    32    23   ar
    46    31    26   ar
    47     4     5    1
    48    28    33    1
    49    28    34    1
@<TRIPOS>MOLECULE
*****
 44 49 0 0 0
SMALL
GASTEIGER

@<TRIPOS>ATOM
      1 N         141.8663  140.7270  160.5041 N.am    1  UNL1       -0.2655
      2 C         141.6304  139.4755  159.7114 C.2     1  UNL1        0.3076
      3 O         140.8919  138.3249  160.3284 O.2     1  UNL1       -0.2522
      4 N         142.1331  139.3747  158.3016 N.am    1  UNL1       -0.2681
      5 H         142.6178  140.1299  157.8967 H       1  UNL1        0.1564
      6 C         141.8972  138.1233  157.5091 C.ar    1  UNL1        0.0517
      7 C         140.6855  138.0082  156.6322 C.ar    1  UNL1        0.0170
      8 C         140.4495  136.7567  155.8396 C.ar    1  UNL1        0.0309
      9 C         141.4252  135.6204  155.9238 C.ar    1  UNL1        0.1441
     10 F         141.1892  134.3691  155.1312 F       1  UNL1       -0.2042
     11 C         142.6367  135.7356  156.8006 C.ar    1  UNL1        0.1000
     12 C         142.8727  136.9870  157.5932 C.ar    1  UNL1        0.0208
     13 C         143.6123  134.5994  156.8848 C.3     1  UNL1        0.4207
     14 F         144.5879  133.4631  156.9689 F       1  UNL1       -0.1658
     15 F         143.2356  134.3822  158.3204 F       1  UNL1       -0.1658
     16 F         143.9891  134.8165  155.4491 F       1  UNL1       -0.1658
     17 C         141.3636  140.8278  161.9137 C.3     1  UNL1        0.0771
     18 C         139.9378  140.6765  162.3543 C.3     1  UNL1        0.0202
     19 C         139.8915  140.8528  163.8431 C.3     1  UNL1        0.0058
     20 C         141.2887  141.1130  164.3227 C.3     1  UNL1        0.0207
     21 C         142.7599  141.3466  164.4987 C.3     1  UNL1        0.0061
     22 C         142.1986  141.0976  163.1303 C.3     1  UNL1        0.0223
     23 C         140.9348  141.2405  165.7749 C.ar    1  UNL1       -0.0196
     24 C         141.5015  142.3657  166.5889 C.ar    1  UNL1       -0.0040
     25 C         141.1476  142.4932  168.0410 C.ar    1  UNL1        0.0057
     26 C         140.2270  141.4954  168.6789 C.ar    1  UNL1        0.0715
     27 C         139.7023  141.3652  170.0782 C.ar    1  UNL1        0.1674
     28 N         140.0139  142.2801  171.2253 N.pl3   1  UNL1       -0.3400
     29 N         138.8114  140.1595  170.1289 N.ar    1  UNL1       -0.0623
     30 O         138.7855  139.5445  168.7609 O.2     1  UNL1       -0.3522
     31 C         139.6604  140.3701  167.8649 C.ar    1  UNL1        0.1778
     32 C         140.0143  140.2427  166.4128 C.ar    1  UNL1        0.0360
     33 H         140.6134  143.0496  171.0924 H       1  UNL1        0.1438
     34 H         139.6189  142.1111  172.1111 H       1  UNL1        0.1438
     35 C         142.6048  141.8776  159.8870 C.3     1  UNL1        0.0963
     36 C         141.8460  143.0567  159.3541 C.3     1  UNL1        0.0389
     37 C         141.8278  144.3456  160.1209 C.3     1  UNL1        0.0739
     38 C         138.8001  144.7205  165.2874 C.3     1  UNL1        0.0897
     39 N         139.5570  144.6268  163.9958 N.3     1  UNL1       -0.2691
     40 C         141.0407  144.8468  163.9783 C.3     1  UNL1        0.0897
     41 C         141.7976  144.7531  162.6867 C.3     1  UNL1        0.0897
     42 N         141.0709  144.4393  161.4125 N.3     1  UNL1       -0.2703
     43 C         139.5872  144.2193  161.4300 C.3     1  UNL1        0.0897
     44 C         138.8303  144.3130  162.7216 C.3     1  UNL1        0.0897
@<TRIPOS>BOND
     1    38    39    1
     2    39    40    1
     3    40    41    1
     4    41    42    1
     5    42    37    1
     6    37    36    1
     7    36    35    1
     8    35     1    1
     9     1     2   am
    10     2     3    2
    11     2     4   am
    12     4     6    1
    13     6     7   ar
    14     7     8   ar
    15     8     9   ar
    16     9    10    1
    17     9    11   ar
    18    11    13    1
    19    13    14    1
    20    13    15    1
    21    13    16    1
    22    11    12   ar
    23    17     1    1
    24    17    18    1
    25    18    19    1
    26    19    20    1
    27    20    23    1
    28    23    24   ar
    29    24    25   ar
    30    25    26   ar
    31    26    27   ar
    32    27    28    1
    33    27    29   ar
    34    29    30   ar
    35    30    31   ar
    36    31    32   ar
    37    20    21    1
    38    22    21    1
    39    42    43    1
    40    43    44    1
    41    44    39    1
    42    12     6   ar
    43    22    17    1
    44    22    20    1
    45    32    23   ar
    46    31    26   ar
    47     4     5    1
    48    28    33    1
    49    28    34    1
@<TRIPOS>MOLECULE
*****
 44 49 0 0 0
SMALL
GASTEIGER

@<TRIPOS>ATOM
      1 N         142.4554  139.5196  160.2767 N.am    1  UNL1       -0.2655
      2 C         143.2345  140.3926  159.3381 C.2     1  UNL1        0.3076
      3 O         144.2278  141.3774  159.8798 O.2     1  UNL1       -0.2522
      4 N         143.0202  140.2807  157.8576 N.am    1  UNL1       -0.2681
      5 H         142.3683  139.6343  157.5020 H       1  UNL1        0.1564
      6 C         143.7993  141.1537  156.9190 C.ar    1  UNL1        0.0517
      7 C         143.0789  142.0688  155.9737 C.ar    1  UNL1        0.0170
      8 C         143.8579  142.9418  155.0351 C.ar    1  UNL1        0.0309
      9 C         145.3573  142.8997  155.0418 C.ar    1  UNL1        0.1441
     10 F         146.1363  143.7727  154.1033 F       1  UNL1       -0.2042
     11 C         146.0777  141.9846  155.9871 C.ar    1  UNL1        0.1000
     12 C         145.2987  141.1116  156.9257 C.ar    1  UNL1        0.0208
     13 C         147.5770  141.9425  155.9939 C.3     1  UNL1        0.4207
     14 F         149.0764  141.9004  156.0006 F       1  UNL1       -0.1658
     15 F         147.5929  142.7111  157.2820 F       1  UNL1       -0.1658
     16 F         147.5612  141.1739  154.7058 F       1  UNL1       -0.1658
     17 C         142.6697  139.6314  161.7571 C.3     1  UNL1        0.0771
     18 C         143.6281  138.8159  162.5733 C.3     1  UNL1        0.0202
     19 C         143.5139  139.2589  164.0018 C.3     1  UNL1        0.0058
     20 C         142.4848  140.3482  164.0685 C.3     1  UNL1        0.0207
     21 C         141.4337  141.3904  163.8258 C.3     1  UNL1        0.0061
     22 C         141.9630  140.5784  162.6811 C.3     1  UNL1        0.0223
     23 C         142.5903  140.5733  165.5478 C.ar    1  UNL1       -0.0196
     24 C         142.5710  141.9688  166.0973 C.ar    1  UNL1       -0.0040
     25 C         142.6765  142.1938  167.5766 C.ar    1  UNL1        0.0057
     26 C         142.8014  141.0233  168.5062 C.ar    1  UNL1        0.0715
     27 C         142.9220  140.9355  169.9989 C.ar    1  UNL1        0.1674
     28 N         142.9447  142.0941  170.9513 N.pl3   1  UNL1       -0.3400
     29 N         143.0158  139.4856  170.3717 N.ar    1  UNL1       -0.0623
     30 O         142.9533  138.6774  169.1096 O.2     1  UNL1       -0.3522
     31 C         142.8208  139.6278  167.9567 C.ar    1  UNL1        0.1778
     32 C         142.7152  139.4028  166.4775 C.ar    1  UNL1        0.0360
     33 H         142.8768  143.0145  170.6085 H       1  UNL1        0.1438
     34 H         143.0274  141.9341  171.9192 H       1  UNL1        0.1438
     35 C         141.4621  138.5348  159.7349 C.3     1  UNL1        0.0963
     36 C         139.9923  138.8098  159.8532 C.3     1  UNL1        0.0389
     37 C         139.1503  137.9970  160.7914 C.3     1  UNL1        0.0739
     38 C         138.9370  139.4085  166.6192 C.3     1  UNL1        0.0897
     39 N         138.9904  139.0556  165.1623 N.3     1  UNL1       -0.2691
     40 C         138.2119  139.8629  164.1661 C.3     1  UNL1        0.0897
     41 C         138.2652  139.5100  162.7092 C.3     1  UNL1        0.0897
     42 N         139.0970  138.3498  162.2484 N.3     1  UNL1       -0.2703
     43 C         139.8755  137.5426  163.2445 C.3     1  UNL1        0.0897
     44 C         139.8222  137.8954  164.7015 C.3     1  UNL1        0.0897
@<TRIPOS>BOND
     1    38    39    1
     2    39    40    1
     3    40    41    1
     4    41    42    1
     5    42    37    1
     6    37    36    1
     7    36    35    1
     8    35     1    1
     9     1     2   am
    10     2     3    2
    11     2     4   am
    12     4     6    1
    13     6     7   ar
    14     7     8   ar
    15     8     9   ar
    16     9    10    1
    17     9    11   ar
    18    11    13    1
    19    13    14    1
    20    13    15    1
    21    13    16    1
    22    11    12   ar
    23    17     1    1
    24    17    18    1
    25    18    19    1
    26    19    20    1
    27    20    23    1
    28    23    24   ar
    29    24    25   ar
    30    25    26   ar
    31    26    27   ar
    32    27    28    1
    33    27    29   ar
    34    29    30   ar
    35    30    31   ar
    36    31    32   ar
    37    20    21    1
    38    22    21    1
    39    42    43    1
    40    43    44    1
    41    44    39    1
    42    12     6   ar
    43    22    17    1
    44    22    20    1
    45    32    23   ar
    46    31    26   ar
    47     4     5    1
    48    28    33    1
    49    28    34    1
@<TRIPOS>MOLECULE
*****
 44 49 0 0 0
SMALL
GASTEIGER

@<TRIPOS>ATOM
      1 N         142.4905  143.6491  162.2027 N.am    1  UNL1       -0.2655
      2 C         143.1053  142.7668  161.1569 C.2     1  UNL1        0.3076
      3 O         143.5452  141.3774  161.5119 O.2     1  UNL1       -0.2522
      4 N         143.2801  143.2740  159.7560 N.am    1  UNL1       -0.2681
      5 H         142.9914  144.1859  159.5230 H       1  UNL1        0.1564
      6 C         143.8949  142.3916  158.7103 C.ar    1  UNL1        0.0517
      7 C         143.3187  141.0327  158.4425 C.ar    1  UNL1        0.0170
      8 C         143.9334  140.1502  157.3968 C.ar    1  UNL1        0.0309
      9 C         145.1242  140.6267  156.6189 C.ar    1  UNL1        0.1441
     10 F         145.7389  139.7442  155.5733 F       1  UNL1       -0.2042
     11 C         145.7003  141.9855  156.8867 C.ar    1  UNL1        0.1000
     12 C         145.0856  142.8679  157.9324 C.ar    1  UNL1        0.0208
     13 C         146.8910  142.4619  156.1088 C.3     1  UNL1        0.4207
     14 F         148.0818  142.9383  155.3310 F       1  UNL1       -0.1658
     15 F         146.0744  142.4489  154.8507 F       1  UNL1       -0.1658
     16 F         147.7077  142.4748  157.3670 F       1  UNL1       -0.1658
     17 C         142.3157  143.1421  163.6035 C.3     1  UNL1        0.0771
     18 C         143.3711  143.1135  164.6689 C.3     1  UNL1        0.0202
     19 C         142.7624  142.5283  165.9087 C.3     1  UNL1        0.0058
     20 C         141.3308  142.1952  165.6094 C.3     1  UNL1        0.0207
     21 C         139.9669  141.9748  165.0254 C.3     1  UNL1        0.0061
     22 C         141.0547  142.5746  164.1847 C.3     1  UNL1        0.0223
     23 C         141.0073  141.6561  166.9713 C.ar    1  UNL1       -0.0196
     24 C         140.3087  140.3358  167.1088 C.ar    1  UNL1       -0.0040
     25 C         139.9852  139.7968  168.4707 C.ar    1  UNL1        0.0057
     26 C         140.3603  140.5779  169.6950 C.ar    1  UNL1        0.0715
     27 C         140.1727  140.3028  171.1577 C.ar    1  UNL1        0.1674
     28 N         139.5175  139.0903  171.7498 N.pl3   1  UNL1       -0.3400
     29 N         140.7553  141.4531  171.9241 N.ar    1  UNL1       -0.0623
     30 O         141.3030  142.4390  170.9352 O.2     1  UNL1       -0.3522
     31 C         141.0588  141.8982  169.5576 C.ar    1  UNL1        0.1778
     32 C         141.3823  142.4372  168.1957 C.ar    1  UNL1        0.0360
     33 H         139.1638  138.3850  171.1611 H       1  UNL1        0.1438
     34 H         139.4413  138.9999  172.7272 H       1  UNL1        0.1438
     35 C         142.0507  145.0386  161.8476 C.3     1  UNL1        0.0963
     36 C         140.7726  145.5873  162.4093 C.3     1  UNL1        0.0389
     37 C         139.4778  145.3615  161.6867 C.3     1  UNL1        0.0739
     38 C         137.5698  139.7730  160.6245 C.3     1  UNL1        0.0897
     39 N         138.0468  141.1701  160.8901 N.3     1  UNL1       -0.2691
     40 C         137.6071  141.8896  162.1306 C.3     1  UNL1        0.0897
     41 C         138.0841  143.2867  162.3962 C.3     1  UNL1        0.0897
     42 N         139.0008  143.9644  161.4211 N.3     1  UNL1       -0.2703
     43 C         139.4404  143.2449  160.1806 C.3     1  UNL1        0.0897
     44 C         138.9634  141.8478  159.9150 C.3     1  UNL1        0.0897
@<TRIPOS>BOND
     1    38    39    1
     2    39    40    1
     3    40    41    1
     4    41    42    1
     5    42    37    1
     6    37    36    1
     7    36    35    1
     8    35     1    1
     9     1     2   am
    10     2     3    2
    11     2     4   am
    12     4     6    1
    13     6     7   ar
    14     7     8   ar
    15     8     9   ar
    16     9    10    1
    17     9    11   ar
    18    11    13    1
    19    13    14    1
    20    13    15    1
    21    13    16    1
    22    11    12   ar
    23    17     1    1
    24    17    18    1
    25    18    19    1
    26    19    20    1
    27    20    23    1
    28    23    24   ar
    29    24    25   ar
    30    25    26   ar
    31    26    27   ar
    32    27    28    1
    33    27    29   ar
    34    29    30   ar
    35    30    31   ar
    36    31    32   ar
    37    20    21    1
    38    22    21    1
    39    42    43    1
    40    43    44    1
    41    44    39    1
    42    12     6   ar
    43    22    17    1
    44    22    20    1
    45    32    23   ar
    46    31    26   ar
    47     4     5    1
    48    28    33    1
    49    28    34    1
@<TRIPOS>MOLECULE
*****
 44 49 0 0 0
SMALL
GASTEIGER

@<TRIPOS>ATOM
      1 N         141.2664  138.9622  163.8100 N.am    1  UNL1       -0.2655
      2 C         141.3263  139.6776  165.1270 C.2     1  UNL1        0.3076
      3 O         142.2911  140.8094  165.3226 O.2     1  UNL1       -0.2522
      4 N         140.4213  139.2613  166.2486 N.am    1  UNL1       -0.2681
      5 H         139.7880  138.5185  166.1203 H       1  UNL1        0.1564
      6 C         140.4813  139.9768  167.5656 C.ar    1  UNL1        0.0517
      7 C         139.2580  140.0611  168.4297 C.ar    1  UNL1        0.0170
      8 C         139.3179  140.7766  169.7467 C.ar    1  UNL1        0.0309
      9 C         140.6010  141.4079  170.1996 C.ar    1  UNL1        0.1441
     10 F         140.6609  142.1233  171.5165 F       1  UNL1       -0.2042
     11 C         141.8242  141.3236  169.3355 C.ar    1  UNL1        0.1000
     12 C         141.7644  140.6081  168.0185 C.ar    1  UNL1        0.0208
     13 C         143.1073  141.9548  169.7884 C.3     1  UNL1        0.4207
     14 F         144.3905  142.5860  170.2413 F       1  UNL1       -0.1658
     15 F         142.5446  143.3129  169.4900 F       1  UNL1       -0.1658
     16 F         143.6701  140.5967  170.0868 F       1  UNL1       -0.1658
     17 C         142.1713  139.3785  162.6885 C.3     1  UNL1        0.0771
     18 C         143.5864  138.9255  162.4830 C.3     1  UNL1        0.0202
     19 C         144.1096  139.5879  161.2431 C.3     1  UNL1        0.0058
     20 C         143.0179  140.4502  160.6823 C.3     1  UNL1        0.0207
     21 C         141.7619  141.2071  160.3669 C.3     1  UNL1        0.0061
     22 C         141.8199  140.3208  161.5756 C.3     1  UNL1        0.0223
     23 C         143.8038  140.9544  159.5082 C.ar    1  UNL1       -0.0196
     24 C         144.4827  142.2901  159.5780 C.ar    1  UNL1       -0.0040
     25 C         145.2685  142.7942  158.4040 C.ar    1  UNL1        0.0057
     26 C         145.3755  141.9625  157.1603 C.ar    1  UNL1        0.0715
     27 C         146.0756  142.1955  155.8542 C.ar    1  UNL1        0.1674
     28 N         146.8805  143.4074  155.4892 N.pl3   1  UNL1       -0.3400
     29 N         145.8294  141.0037  154.9773 N.ar    1  UNL1       -0.0623
     30 O         144.9771  140.0342  155.7414 O.2     1  UNL1       -0.3522
     31 C         144.6966  140.6268  157.0905 C.ar    1  UNL1        0.1778
     32 C         143.9108  140.1227  158.2645 C.ar    1  UNL1        0.0360
     33 H         146.9852  144.1420  156.1363 H       1  UNL1        0.1438
     34 H         147.3041  143.4683  154.6026 H       1  UNL1        0.1438
     35 C         140.3015  137.8304  163.6145 C.3     1  UNL1        0.0963
     36 C         139.4483  137.7766  162.3820 C.3     1  UNL1        0.0389
     37 C         138.1244  138.4811  162.3550 C.3     1  UNL1        0.0739
     38 C         137.8806  144.4368  163.0405 C.3     1  UNL1        0.0897
     39 N         137.9416  142.9479  162.8691 N.3     1  UNL1       -0.2691
     40 C         138.1060  142.3566  161.5004 C.3     1  UNL1        0.0897
     41 C         138.1669  140.8677  161.3290 C.3     1  UNL1        0.0897
     42 N         138.0634  139.9700  162.5264 N.3     1  UNL1       -0.2703
     43 C         137.8990  140.5613  163.8951 C.3     1  UNL1        0.0897
     44 C         137.8381  142.0502  164.0665 C.3     1  UNL1        0.0897
@<TRIPOS>BOND
     1    38    39    1
     2    39    40    1
     3    40    41    1
     4    41    42    1
     5    42    37    1
     6    37    36    1
     7    36    35    1
     8    35     1    1
     9     1     2   am
    10     2     3    2
    11     2     4   am
    12     4     6    1
    13     6     7   ar
    14     7     8   ar
    15     8     9   ar
    16     9    10    1
    17     9    11   ar
    18    11    13    1
    19    13    14    1
    20    13    15    1
    21    13    16    1
    22    11    12   ar
    23    17     1    1
    24    17    18    1
    25    18    19    1
    26    19    20    1
    27    20    23    1
    28    23    24   ar
    29    24    25   ar
    30    25    26   ar
    31    26    27   ar
    32    27    28    1
    33    27    29   ar
    34    29    30   ar
    35    30    31   ar
    36    31    32   ar
    37    20    21    1
    38    22    21    1
    39    42    43    1
    40    43    44    1
    41    44    39    1
    42    12     6   ar
    43    22    17    1
    44    22    20    1
    45    32    23   ar
    46    31    26   ar
    47     4     5    1
    48    28    33    1
    49    28    34    1
@<TRIPOS>MOLECULE
*****
 44 49 0 0 0
SMALL
GASTEIGER

@<TRIPOS>ATOM
      1 N         140.3777  141.2355  160.5233 N.am    1  UNL1       -0.2655
      2 C         139.6858  142.1844  159.5901 C.2     1  UNL1        0.3076
      3 O         138.9935  143.3993  160.1331 O.2     1  UNL1       -0.2522
      4 N         139.6861  141.9183  158.1138 N.am    1  UNL1       -0.2681
      5 H         140.1404  141.1210  157.7574 H       1  UNL1        0.1564
      6 C         138.9941  142.8672  157.1807 C.ar    1  UNL1        0.0517
      7 C         137.6307  142.5363  156.6497 C.ar    1  UNL1        0.0170
      8 C         136.9387  143.4851  155.7165 C.ar    1  UNL1        0.0309
      9 C         137.6099  144.7649  155.3144 C.ar    1  UNL1        0.1441
     10 F         136.9179  145.7137  154.3813 F       1  UNL1       -0.2042
     11 C         138.9732  145.0958  155.8454 C.ar    1  UNL1        0.1000
     12 C         139.6653  144.1470  156.7786 C.ar    1  UNL1        0.0208
     13 C         139.6444  146.3755  155.4433 C.3     1  UNL1        0.4207
     14 F         140.3157  147.6553  155.0413 F       1  UNL1       -0.1658
     15 F         139.9321  145.7991  154.0887 F       1  UNL1       -0.1658
     16 F         139.3567  146.9520  156.7980 F       1  UNL1       -0.1658
     17 C         140.3775  141.5015  161.9995 C.3     1  UNL1        0.0771
     18 C         140.6505  142.8215  162.6576 C.3     1  UNL1        0.0202
     19 C         140.5459  142.6300  164.1416 C.3     1  UNL1        0.0058
     20 C         140.2082  141.1917  164.4007 C.3     1  UNL1        0.0207
     21 C         139.8779  139.7295  164.3472 C.3     1  UNL1        0.0061
     22 C         140.1041  140.4943  163.0768 C.3     1  UNL1        0.0223
     23 C         140.1726  141.3060  165.8960 C.ar    1  UNL1       -0.0196
     24 C         140.8635  142.4498  166.5774 C.ar    1  UNL1       -0.0040
     25 C         140.8279  142.5640  168.0726 C.ar    1  UNL1        0.0057
     26 C         140.1014  141.5344  168.8864 C.ar    1  UNL1        0.0715
     27 C         139.8965  141.3853  170.3649 C.ar    1  UNL1        0.1674
     28 N         140.4176  142.3098  171.4249 N.pl3   1  UNL1       -0.3400
     29 N         139.0789  140.1493  170.5971 N.ar    1  UNL1       -0.0623
     30 O         138.7786  139.5346  169.2622 O.2     1  UNL1       -0.3522
     31 C         139.4105  140.3906  168.2049 C.ar    1  UNL1        0.1778
     32 C         139.4461  140.2764  166.7097 C.ar    1  UNL1        0.0360
     33 H         140.9478  143.0998  171.1718 H       1  UNL1        0.1438
     34 H         140.2294  142.1266  172.3737 H       1  UNL1        0.1438
     35 C         141.0700  140.0206  159.9803 C.3     1  UNL1        0.0963
     36 C         142.4431  139.6604  160.4648 C.3     1  UNL1        0.0389
     37 C         143.5301  140.6939  160.4746 C.3     1  UNL1        0.0739
     38 C         144.6948  143.7752  165.4895 C.3     1  UNL1        0.0897
     39 N         144.4036  143.0049  164.2358 N.3     1  UNL1       -0.2691
     40 C         144.4266  143.6994  162.9064 C.3     1  UNL1        0.0897
     41 C         144.1354  142.9291  161.6527 C.3     1  UNL1        0.0897
     42 N         143.8213  141.4642  161.7283 N.3     1  UNL1       -0.2703
     43 C         143.7983  140.7697  163.0577 C.3     1  UNL1        0.0897
     44 C         144.0895  141.5401  164.3114 C.3     1  UNL1        0.0897
@<TRIPOS>BOND
     1    38    39    1
     2    39    40    1
     3    40    41    1
     4    41    42    1
     5    42    37    1
     6    37    36    1
     7    36    35    1
     8    35     1    1
     9     1     2   am
    10     2     3    2
    11     2     4   am
    12     4     6    1
    13     6     7   ar
    14     7     8   ar
    15     8     9   ar
    16     9    10    1
    17     9    11   ar
    18    11    13    1
    19    13    14    1
    20    13    15    1
    21    13    16    1
    22    11    12   ar
    23    17     1    1
    24    17    18    1
    25    18    19    1
    26    19    20    1
    27    20    23    1
    28    23    24   ar
    29    24    25   ar
    30    25    26   ar
    31    26    27   ar
    32    27    28    1
    33    27    29   ar
    34    29    30   ar
    35    30    31   ar
    36    31    32   ar
    37    20    21    1
    38    22    21    1
    39    42    43    1
    40    43    44    1
    41    44    39    1
    42    12     6   ar
    43    22    17    1
    44    22    20    1
    45    32    23   ar
    46    31    26   ar
    47     4     5    1
    48    28    33    1
    49    28    34    1
@<TRIPOS>MOLECULE
*****
 44 49 0 0 0
SMALL
GASTEIGER

@<TRIPOS>ATOM
      1 N         142.2460  143.5578  161.9362 N.am    1  UNL1       -0.2655
      2 C         142.9366  142.6983  160.9191 C.2     1  UNL1        0.3076
      3 O         143.5015  141.3680  161.3207 O.2     1  UNL1       -0.2522
      4 N         143.0621  143.1691  159.5004 N.am    1  UNL1       -0.2681
      5 H         142.6913  144.0421  159.2368 H       1  UNL1        0.1564
      6 C         143.7526  142.3095  158.4834 C.ar    1  UNL1        0.0517
      7 C         145.1621  142.6183  158.0733 C.ar    1  UNL1        0.0170
      8 C         145.8527  141.7588  157.0563 C.ar    1  UNL1        0.0309
      9 C         145.1339  140.5904  156.4494 C.ar    1  UNL1        0.1441
     10 F         145.8244  139.7309  155.4324 F       1  UNL1       -0.2042
     11 C         143.7244  140.2816  156.8595 C.ar    1  UNL1        0.1000
     12 C         143.0338  141.1412  157.8765 C.ar    1  UNL1        0.0208
     13 C         143.0056  139.1134  156.2526 C.3     1  UNL1        0.4207
     14 F         142.2867  137.9451  155.6457 F       1  UNL1       -0.1658
     15 F         143.1948  138.3374  157.5223 F       1  UNL1       -0.1658
     16 F         142.8164  139.8894  154.9829 F       1  UNL1       -0.1658
     17 C         142.1205  143.0870  163.3549 C.3     1  UNL1        0.0771
     18 C         143.2284  143.0234  164.3640 C.3     1  UNL1        0.0202
     19 C         142.6576  142.4943  165.6463 C.3     1  UNL1        0.0058
     20 C         141.1969  142.2310  165.4296 C.3     1  UNL1        0.0207
     21 C         139.7942  142.0714  164.9227 C.3     1  UNL1        0.0061
     22 C         140.8649  142.5974  164.0134 C.3     1  UNL1        0.0223
     23 C         140.9193  141.7353  166.8179 C.ar    1  UNL1       -0.0196
     24 C         140.3273  140.3725  167.0234 C.ar    1  UNL1       -0.0040
     25 C         140.0497  139.8769  168.4116 C.ar    1  UNL1        0.0057
     26 C         140.3643  140.7441  169.5944 C.ar    1  UNL1        0.0715
     27 C         140.2016  140.5269  171.0698 C.ar    1  UNL1        0.1674
     28 N         139.6451  139.2970  171.7238 N.pl3   1  UNL1       -0.3400
     29 N         140.6931  141.7555  171.7761 N.ar    1  UNL1       -0.0623
     30 O         141.1595  142.7319  170.7373 O.2     1  UNL1       -0.3522
     31 C         140.9563  142.1069  169.3890 C.ar    1  UNL1        0.1778
     32 C         141.2338  142.6025  168.0008 C.ar    1  UNL1        0.0360
     33 H         139.3470  138.5381  171.1721 H       1  UNL1        0.1438
     34 H         139.5780  139.2487  172.7048 H       1  UNL1        0.1438
     35 C         141.6811  144.8881  161.5346 C.3     1  UNL1        0.0963
     36 C         140.2347  145.0049  161.1547 C.3     1  UNL1        0.0389
     37 C         139.6575  144.0951  160.1112 C.3     1  UNL1        0.0739
     38 C         137.6952  138.6361  161.6436 C.3     1  UNL1        0.0897
     39 N         138.1858  140.0008  161.2605 N.3     1  UNL1       -0.2691
     40 C         139.2170  140.1516  160.1817 C.3     1  UNL1        0.0897
     41 C         139.7076  141.5163  159.7986 C.3     1  UNL1        0.0897
     42 N         139.1670  142.7304  160.4943 N.3     1  UNL1       -0.2703
     43 C         138.1357  142.5796  161.5731 C.3     1  UNL1        0.0897
     44 C         137.6451  141.2148  161.9562 C.3     1  UNL1        0.0897
@<TRIPOS>BOND
     1    38    39    1
     2    39    40    1
     3    40    41    1
     4    41    42    1
     5    42    37    1
     6    37    36    1
     7    36    35    1
     8    35     1    1
     9     1     2   am
    10     2     3    2
    11     2     4   am
    12     4     6    1
    13     6     7   ar
    14     7     8   ar
    15     8     9   ar
    16     9    10    1
    17     9    11   ar
    18    11    13    1
    19    13    14    1
    20    13    15    1
    21    13    16    1
    22    11    12   ar
    23    17     1    1
    24    17    18    1
    25    18    19    1
    26    19    20    1
    27    20    23    1
    28    23    24   ar
    29    24    25   ar
    30    25    26   ar
    31    26    27   ar
    32    27    28    1
    33    27    29   ar
    34    29    30   ar
    35    30    31   ar
    36    31    32   ar
    37    20    21    1
    38    22    21    1
    39    42    43    1
    40    43    44    1
    41    44    39    1
    42    12     6   ar
    43    22    17    1
    44    22    20    1
    45    32    23   ar
    46    31    26   ar
    47     4     5    1
    48    28    33    1
    49    28    34    1
