@<TRIPOS>MOLECULE
*****
 32 36 0 0 0
SMALL
GASTEIGER

@<TRIPOS>ATOM
      1 N         142.3463  140.0961  162.6942 N.3     1  UNL1       -0.2710
      2 C         142.9192  139.6035  163.9900 C.3     1  UNL1        0.0725
      3 C         142.0279  139.4193  165.1823 C.3     1  UNL1        0.0218
      4 C         140.5636  139.7279  165.0788 C.3     1  UNL1        0.0267
      5 C         139.9907  140.2205  163.7830 C.3     1  UNL1        0.0218
      6 C         140.8821  140.4047  162.5907 C.3     1  UNL1        0.0725
      7 C         139.6722  139.5437  166.2711 C.2     1  UNL1       -0.0021
      8 C         138.4552  138.6693  166.3354 C.2     1  UNL1        0.0942
      9 N         137.8721  138.7868  167.7124 N.2     1  UNL1       -0.2482
     10 C         138.7289  139.7339  168.4992 C.2     1  UNL1        0.0631
     11 C         138.6397  140.2308  169.9117 C.3     1  UNL1        0.0724
     12 C         139.6630  141.1954  170.4334 C.2     1  UNL1       -0.0095
     13 C         140.7756  141.6632  169.5426 C.2     1  UNL1        0.0646
     14 C         140.8647  141.1664  168.1302 C.2     1  UNL1        0.0109
     15 C         139.8414  140.2017  167.6084 C.2     1  UNL1        0.0121
     16 C         141.7989  142.6279  170.0644 C.1     1  UNL1        0.1001
     17 N         142.8221  143.5926  170.5863 N.1     1  UNL1       -0.1908
     18 C         143.2377  140.2803  161.5019 C.3     1  UNL1        0.0970
     19 C         143.8140  141.6314  161.1979 C.3     1  UNL1        0.1264
     20 C         140.3102  144.3223  160.3419 C.ar    1  UNL1        0.1593
     21 C         140.0177  145.4831  161.2457 C.ar    1  UNL1        0.1357
     22 N         140.8931  145.7470  162.4348 N.ar    1  UNL1       -0.2392
     23 C         142.0610  144.8500  162.7202 C.ar    1  UNL1        0.0975
     24 C         142.9364  145.1139  163.9093 C.ar    1  UNL1        0.0255
     25 C         144.1043  144.2169  164.1946 C.ar    1  UNL1        0.0623
     26 C         144.3969  143.0561  163.2908 C.ar    1  UNL1        0.2611
     27 O         145.5648  142.1591  163.5761 O.2     1  UNL1       -0.2670
     28 N         143.5215  142.7922  162.1017 N.ar    1  UNL1       -0.2926
     29 C         142.3535  143.6892  161.8164 C.ar    1  UNL1        0.0832
     30 C         141.4781  143.4253  160.6272 C.ar    1  UNL1        0.0573
     31 C         138.7406  142.7363  159.0111 C.3     1  UNL1        0.2525
     32 O         139.4348  144.0584  159.1528 O.3     1  UNL1       -0.4698
@<TRIPOS>BOND
     1    31    32    1
     2    32    20    1
     3    20    21   ar
     4    21    22   ar
     5    22    23   ar
     6    23    24   ar
     7    24    25   ar
     8    25    26   ar
     9    26    27    2
    10    26    28   ar
    11    28    19    1
    12    19    18    1
    13    18     1    1
    14     1     2    1
    15     2     3    1
    16     3     4    1
    17     4     7    1
    18     7     8    2
    19     8     9    1
    20     9    10    2
    21    10    11    1
    22    11    12    1
    23    12    13    2
    24    13    16    1
    25    16    17    3
    26    13    14    1
    27    14    15    2
    28     4     5    1
    29     5     6    1
    30    28    29   ar
    31    29    30   ar
    32    30    20   ar
    33    29    23   ar
    34     6     1    1
    35    15     7    1
    36    15    10    1
@<TRIPOS>MOLECULE
*****
 32 36 0 0 0
SMALL
GASTEIGER

@<TRIPOS>ATOM
      1 N         140.5940  139.8314  162.3214 N.3     1  UNL1       -0.2710
      2 C         139.6868  140.8902  162.8744 C.3     1  UNL1        0.0725
      3 C         139.2104  140.8032  164.2940 C.3     1  UNL1        0.0218
      4 C         139.6414  139.6573  165.1608 C.3     1  UNL1        0.0267
      5 C         140.5486  138.5985  164.6078 C.3     1  UNL1        0.0218
      6 C         141.0250  138.6855  163.1882 C.3     1  UNL1        0.0725
      7 C         139.1651  139.5703  166.5805 C.2     1  UNL1       -0.0021
      8 C         137.8977  138.9173  167.0468 C.2     1  UNL1        0.0942
      9 N         137.8218  139.0643  168.5376 N.2     1  UNL1       -0.2482
     10 C         139.0423  139.8082  168.9927 C.2     1  UNL1        0.0631
     11 C         139.5050  140.2412  170.3523 C.3     1  UNL1        0.0724
     12 C         140.7978  140.9868  170.5023 C.2     1  UNL1       -0.0095
     13 C         141.6280  141.2996  169.2927 C.2     1  UNL1        0.0646
     14 C         141.1653  140.8665  167.9332 C.2     1  UNL1        0.0109
     15 C         139.8725  140.1208  167.7832 C.2     1  UNL1        0.0121
     16 C         142.9208  142.0452  169.4428 C.1     1  UNL1        0.1001
     17 N         144.2137  142.7908  169.5928 N.1     1  UNL1       -0.1908
     18 C         141.0704  139.9184  160.9017 C.3     1  UNL1        0.0970
     19 C         142.2164  140.8197  160.5491 C.3     1  UNL1        0.1264
     20 C         141.7213  144.8279  162.5337 C.ar    1  UNL1        0.1593
     21 C         142.6871  145.2635  163.5955 C.ar    1  UNL1        0.1357
     22 N         143.8180  144.3630  163.9957 N.ar    1  UNL1       -0.2392
     23 C         143.9831  143.0269  163.3342 C.ar    1  UNL1        0.0975
     24 C         145.1139  142.1264  163.7344 C.ar    1  UNL1        0.0255
     25 C         145.2790  140.7903  163.0729 C.ar    1  UNL1        0.0623
     26 C         144.3131  140.3547  162.0110 C.ar    1  UNL1        0.2611
     27 O         144.4781  139.0187  161.3495 O.2     1  UNL1       -0.2670
     28 N         143.1822  141.2553  161.6108 N.ar    1  UNL1       -0.2926
     29 C         143.0172  142.5914  162.2724 C.ar    1  UNL1        0.0832
     30 C         141.8863  143.4919  161.8722 C.ar    1  UNL1        0.0573
     31 C         139.1798  145.3657  162.4922 C.3     1  UNL1        0.2525
     32 O         140.5904  145.7284  162.1335 O.3     1  UNL1       -0.4698
@<TRIPOS>BOND
     1    31    32    1
     2    32    20    1
     3    20    21   ar
     4    21    22   ar
     5    22    23   ar
     6    23    24   ar
     7    24    25   ar
     8    25    26   ar
     9    26    27    2
    10    26    28   ar
    11    28    19    1
    12    19    18    1
    13    18     1    1
    14     1     2    1
    15     2     3    1
    16     3     4    1
    17     4     7    1
    18     7     8    2
    19     8     9    1
    20     9    10    2
    21    10    11    1
    22    11    12    1
    23    12    13    2
    24    13    16    1
    25    16    17    3
    26    13    14    1
    27    14    15    2
    28     4     5    1
    29     5     6    1
    30    28    29   ar
    31    29    30   ar
    32    30    20   ar
    33    29    23   ar
    34     6     1    1
    35    15     7    1
    36    15    10    1
@<TRIPOS>MOLECULE
*****
 32 36 0 0 0
SMALL
GASTEIGER

@<TRIPOS>ATOM
      1 N         142.7927  142.5528  162.4893 N.3     1  UNL1       -0.2710
      2 C         143.0359  143.2909  163.7723 C.3     1  UNL1        0.0725
      3 C         143.0588  142.5454  165.0737 C.3     1  UNL1        0.0218
      4 C         142.8386  141.0618  165.0921 C.3     1  UNL1        0.0267
      5 C         142.5955  140.3237  163.8091 C.3     1  UNL1        0.0218
      6 C         142.5725  141.0692  162.5077 C.3     1  UNL1        0.0725
      7 C         142.8616  140.3162  166.3935 C.2     1  UNL1       -0.0021
      8 C         143.4076  138.9359  166.6093 C.2     1  UNL1        0.0942
      9 N         143.2260  138.5866  168.0567 N.2     1  UNL1       -0.2482
     10 C         142.5678  139.7512  168.7355 C.2     1  UNL1        0.0631
     11 C         142.1443  139.9763  170.1567 C.3     1  UNL1        0.0724
     12 C         141.4957  141.2703  170.5501 C.2     1  UNL1       -0.0095
     13 C         141.2705  142.3393  169.5221 C.2     1  UNL1        0.0646
     14 C         141.6939  142.1141  168.1009 C.2     1  UNL1        0.0109
     15 C         142.3425  140.8201  167.7075 C.2     1  UNL1        0.0121
     16 C         140.6218  143.6332  169.9155 C.1     1  UNL1        0.1001
     17 N         139.9733  144.9273  170.3090 N.1     1  UNL1       -0.1908
     18 C         142.7698  143.2984  161.1878 C.3     1  UNL1        0.0970
     19 C         141.4630  143.7450  160.6023 C.3     1  UNL1        0.1264
     20 C         138.8502  140.0972  160.2603 C.ar    1  UNL1        0.1593
     21 C         137.5920  139.9973  161.0708 C.ar    1  UNL1        0.1357
     22 N         137.2047  141.1132  161.9952 N.ar    1  UNL1       -0.2392
     23 C         138.0756  142.3291  162.1093 C.ar    1  UNL1        0.0975
     24 C         137.6883  143.4451  163.0337 C.ar    1  UNL1        0.0255
     25 C         138.5592  144.6610  163.1477 C.ar    1  UNL1        0.0623
     26 C         139.8175  144.7610  162.3372 C.ar    1  UNL1        0.2611
     27 O         140.6884  145.9769  162.4513 O.2     1  UNL1       -0.2670
     28 N         140.2048  143.6450  161.4128 N.ar    1  UNL1       -0.2926
     29 C         139.3338  142.4291  161.2988 C.ar    1  UNL1        0.0832
     30 C         139.7211  141.3131  160.3743 C.ar    1  UNL1        0.0573
     31 C         140.6828  138.7409  159.0145 C.3     1  UNL1        0.2525
     32 O         139.2375  138.9813  159.3358 O.3     1  UNL1       -0.4698
@<TRIPOS>BOND
     1    31    32    1
     2    32    20    1
     3    20    21   ar
     4    21    22   ar
     5    22    23   ar
     6    23    24   ar
     7    24    25   ar
     8    25    26   ar
     9    26    27    2
    10    26    28   ar
    11    28    19    1
    12    19    18    1
    13    18     1    1
    14     1     2    1
    15     2     3    1
    16     3     4    1
    17     4     7    1
    18     7     8    2
    19     8     9    1
    20     9    10    2
    21    10    11    1
    22    11    12    1
    23    12    13    2
    24    13    16    1
    25    16    17    3
    26    13    14    1
    27    14    15    2
    28     4     5    1
    29     5     6    1
    30    28    29   ar
    31    29    30   ar
    32    30    20   ar
    33    29    23   ar
    34     6     1    1
    35    15     7    1
    36    15    10    1
@<TRIPOS>MOLECULE
*****
 32 36 0 0 0
SMALL
GASTEIGER

@<TRIPOS>ATOM
      1 N         142.6747  140.9079  162.5405 N.3     1  UNL1       -0.2710
      2 C         141.1887  140.8115  162.3598 C.3     1  UNL1        0.0725
      3 C         140.3105  140.4837  163.5308 C.3     1  UNL1        0.0218
      4 C         140.9182  140.2523  164.8825 C.3     1  UNL1        0.0267
      5 C         142.4041  140.3487  165.0632 C.3     1  UNL1        0.0218
      6 C         143.2824  140.6765  163.8922 C.3     1  UNL1        0.0725
      7 C         140.0399  139.9245  166.0535 C.2     1  UNL1       -0.0021
      8 C         138.8685  138.9877  166.0421 C.2     1  UNL1        0.0942
      9 N         138.2835  138.9602  167.4230 N.2     1  UNL1       -0.2482
     10 C         139.0934  139.8800  168.2879 C.2     1  UNL1        0.0631
     11 C         138.9828  140.2518  169.7369 C.3     1  UNL1        0.0724
     12 C         139.9575  141.2196  170.3394 C.2     1  UNL1       -0.0095
     13 C         141.0431  141.8156  169.4930 C.2     1  UNL1        0.0646
     14 C         141.1538  141.4438  168.0440 C.2     1  UNL1        0.0109
     15 C         140.1790  140.4760  167.4415 C.2     1  UNL1        0.0121
     16 C         142.0178  142.7834  170.0956 C.1     1  UNL1        0.1001
     17 N         142.9925  143.7514  170.6982 N.1     1  UNL1       -0.1908
     18 C         143.5529  141.2357  161.3695 C.3     1  UNL1        0.0970
     19 C         143.8843  142.6650  161.0574 C.3     1  UNL1        0.1264
     20 C         140.5354  145.0743  162.8546 C.ar    1  UNL1        0.1593
     21 C         139.6303  145.8778  161.9686 C.ar    1  UNL1        0.1357
     22 N         139.8414  145.8783  160.4836 N.ar    1  UNL1       -0.2392
     23 C         140.9577  145.0752  159.8845 C.ar    1  UNL1        0.0975
     24 C         141.1688  145.0756  158.3994 C.ar    1  UNL1        0.0255
     25 C         142.2851  144.2725  157.8003 C.ar    1  UNL1        0.0623
     26 C         143.1903  143.4689  158.6863 C.ar    1  UNL1        0.2611
     27 O         144.3065  142.6658  158.0873 O.2     1  UNL1       -0.2670
     28 N         142.9791  143.4685  160.1714 N.ar    1  UNL1       -0.2926
     29 C         141.8628  144.2717  160.7705 C.ar    1  UNL1        0.0832
     30 C         141.6517  144.2712  162.2555 C.ar    1  UNL1        0.0573
     31 C         139.7777  143.8535  165.0192 C.3     1  UNL1        0.2525
     32 O         140.3243  145.0739  164.3397 O.3     1  UNL1       -0.4698
@<TRIPOS>BOND
     1    31    32    1
     2    32    20    1
     3    20    21   ar
     4    21    22   ar
     5    22    23   ar
     6    23    24   ar
     7    24    25   ar
     8    25    26   ar
     9    26    27    2
    10    26    28   ar
    11    28    19    1
    12    19    18    1
    13    18     1    1
    14     1     2    1
    15     2     3    1
    16     3     4    1
    17     4     7    1
    18     7     8    2
    19     8     9    1
    20     9    10    2
    21    10    11    1
    22    11    12    1
    23    12    13    2
    24    13    16    1
    25    16    17    3
    26    13    14    1
    27    14    15    2
    28     4     5    1
    29     5     6    1
    30    28    29   ar
    31    29    30   ar
    32    30    20   ar
    33    29    23   ar
    34     6     1    1
    35    15     7    1
    36    15    10    1
@<TRIPOS>MOLECULE
*****
 32 36 0 0 0
SMALL
GASTEIGER

@<TRIPOS>ATOM
      1 N         142.8447  141.5371  162.2723 N.3     1  UNL1       -0.2710
      2 C         143.2594  142.3434  163.4673 C.3     1  UNL1        0.0725
      3 C         143.3313  141.6978  164.8193 C.3     1  UNL1        0.0218
      4 C         142.9884  140.2460  164.9763 C.3     1  UNL1        0.0267
      5 C         142.5737  139.4398  163.7813 C.3     1  UNL1        0.0218
      6 C         142.5018  140.0854  162.4293 C.3     1  UNL1        0.0725
      7 C         143.0602  139.6004  166.3284 C.2     1  UNL1       -0.0021
      8 C         143.6326  138.2470  166.6299 C.2     1  UNL1        0.0942
      9 N         143.4985  138.0049  168.1041 N.2     1  UNL1       -0.2482
     10 C         142.8432  139.2087  168.7138 C.2     1  UNL1        0.0631
     11 C         142.4581  139.5343  170.1265 C.3     1  UNL1        0.0724
     12 C         141.8023  140.8459  170.4417 C.2     1  UNL1       -0.0095
     13 C         141.5315  141.8320  169.3442 C.2     1  UNL1        0.0646
     14 C         141.9165  141.5064  167.9315 C.2     1  UNL1        0.0109
     15 C         142.5724  140.1947  167.6163 C.2     1  UNL1        0.0121
     16 C         140.8756  143.1436  169.6595 C.1     1  UNL1        0.1001
     17 N         140.2198  144.4553  169.9747 N.1     1  UNL1       -0.1908
     18 C         142.7729  142.1828  160.9202 C.3     1  UNL1        0.0970
     19 C         141.4423  142.5570  160.3375 C.3     1  UNL1        0.1264
     20 C         138.3604  141.4564  163.4264 C.ar    1  UNL1        0.1593
     21 C         137.5323  142.5264  164.0740 C.ar    1  UNL1        0.1357
     22 N         137.7314  143.9632  163.6919 N.ar    1  UNL1       -0.2392
     23 C         138.7587  144.3300  162.6623 C.ar    1  UNL1        0.0975
     24 C         138.9578  145.7668  162.2803 C.ar    1  UNL1        0.0255
     25 C         139.9850  146.1337  161.2507 C.ar    1  UNL1        0.0623
     26 C         140.8132  145.0637  160.6031 C.ar    1  UNL1        0.2611
     27 O         141.8405  145.4306  159.5735 O.2     1  UNL1       -0.2670
     28 N         140.6141  143.6269  160.9851 N.ar    1  UNL1       -0.2926
     29 C         139.5868  143.2601  162.0148 C.ar    1  UNL1        0.0832
     30 C         139.3877  141.8233  162.3968 C.ar    1  UNL1        0.0573
     31 C         138.3036  139.5978  165.2408 C.3     1  UNL1        0.2525
     32 O         138.1613  140.0196  163.8084 O.3     1  UNL1       -0.4698
@<TRIPOS>BOND
     1    31    32    1
     2    32    20    1
     3    20    21   ar
     4    21    22   ar
     5    22    23   ar
     6    23    24   ar
     7    24    25   ar
     8    25    26   ar
     9    26    27    2
    10    26    28   ar
    11    28    19    1
    12    19    18    1
    13    18     1    1
    14     1     2    1
    15     2     3    1
    16     3     4    1
    17     4     7    1
    18     7     8    2
    19     8     9    1
    20     9    10    2
    21    10    11    1
    22    11    12    1
    23    12    13    2
    24    13    16    1
    25    16    17    3
    26    13    14    1
    27    14    15    2
    28     4     5    1
    29     5     6    1
    30    28    29   ar
    31    29    30   ar
    32    30    20   ar
    33    29    23   ar
    34     6     1    1
    35    15     7    1
    36    15    10    1
@<TRIPOS>MOLECULE
*****
 32 36 0 0 0
SMALL
GASTEIGER

@<TRIPOS>ATOM
      1 N         138.0501  139.8033  161.3258 N.3     1  UNL1       -0.2710
      2 C         138.5287  138.5298  161.9576 C.3     1  UNL1        0.0725
      3 C         138.7104  138.4524  163.4445 C.3     1  UNL1        0.0218
      4 C         138.4136  139.6485  164.2996 C.3     1  UNL1        0.0267
      5 C         137.9350  140.9220  163.6678 C.3     1  UNL1        0.0218
      6 C         137.7533  140.9994  162.1809 C.3     1  UNL1        0.0725
      7 C         138.5954  139.5711  165.7866 C.2     1  UNL1       -0.0021
      8 C         137.7001  138.8467  166.7477 C.2     1  UNL1        0.0942
      9 N         138.2556  139.0324  168.1286 N.2     1  UNL1       -0.2482
     10 C         139.4943  139.8716  168.0209 C.2     1  UNL1        0.0631
     11 C         140.4582  140.3756  169.0538 C.3     1  UNL1        0.0724
     12 C         141.6319  141.2124  168.6393 C.2     1  UNL1       -0.0095
     13 C         141.8419  141.5454  167.1918 C.2     1  UNL1        0.0646
     14 C         140.8780  141.0414  166.1589 C.2     1  UNL1        0.0109
     15 C         139.7042  140.2045  166.5734 C.2     1  UNL1        0.0121
     16 C         143.0157  142.3822  166.7774 C.1     1  UNL1        0.1001
     17 N         144.1896  143.2191  166.3631 N.1     1  UNL1       -0.1908
     18 C         137.8683  139.8807  159.8388 C.3     1  UNL1        0.0970
     19 C         138.9800  140.3953  158.9731 C.3     1  UNL1        0.1264
     20 C         142.7231  140.6089  161.4618 C.ar    1  UNL1        0.1593
     21 C         143.8911  139.7257  161.1370 C.ar    1  UNL1        0.1357
     22 N         143.8114  138.7712  159.9826 N.ar    1  UNL1       -0.2392
     23 C         142.5637  138.7000  159.1530 C.ar    1  UNL1        0.0975
     24 C         142.4841  137.7455  157.9986 C.ar    1  UNL1        0.0255
     25 C         141.2364  137.6743  157.1691 C.ar    1  UNL1        0.0623
     26 C         140.0683  138.5576  157.4939 C.ar    1  UNL1        0.2611
     27 O         138.8206  138.4864  156.6644 O.2     1  UNL1       -0.2670
     28 N         140.1480  139.5121  158.6483 N.ar    1  UNL1       -0.2926
     29 C         141.3958  139.5832  159.4779 C.ar    1  UNL1        0.0832
     30 C         141.4754  140.5377  160.6323 C.ar    1  UNL1        0.0573
     31 C         143.3128  142.9577  162.4027 C.3     1  UNL1        0.2525
     32 O         142.8028  141.5634  162.6162 O.3     1  UNL1       -0.4698
@<TRIPOS>BOND
     1    31    32    1
     2    32    20    1
     3    20    21   ar
     4    21    22   ar
     5    22    23   ar
     6    23    24   ar
     7    24    25   ar
     8    25    26   ar
     9    26    27    2
    10    26    28   ar
    11    28    19    1
    12    19    18    1
    13    18     1    1
    14     1     2    1
    15     2     3    1
    16     3     4    1
    17     4     7    1
    18     7     8    2
    19     8     9    1
    20     9    10    2
    21    10    11    1
    22    11    12    1
    23    12    13    2
    24    13    16    1
    25    16    17    3
    26    13    14    1
    27    14    15    2
    28     4     5    1
    29     5     6    1
    30    28    29   ar
    31    29    30   ar
    32    30    20   ar
    33    29    23   ar
    34     6     1    1
    35    15     7    1
    36    15    10    1
@<TRIPOS>MOLECULE
*****
 32 36 0 0 0
SMALL
GASTEIGER

@<TRIPOS>ATOM
      1 N         137.7094  140.0080  161.3693 N.3     1  UNL1       -0.2710
      2 C         137.5153  141.2078  162.2483 C.3     1  UNL1        0.0725
      3 C         137.8648  141.1346  163.7052 C.3     1  UNL1        0.0218
      4 C         138.4082  139.8616  164.2830 C.3     1  UNL1        0.0267
      5 C         138.6023  138.6618  163.4040 C.3     1  UNL1        0.0218
      6 C         138.2529  138.7349  161.9471 C.3     1  UNL1        0.0725
      7 C         138.7577  139.7884  165.7399 C.2     1  UNL1       -0.0021
      8 C         137.9666  139.0840  166.8021 C.2     1  UNL1        0.0942
      9 N         138.6795  139.2669  168.1090 N.2     1  UNL1       -0.2482
     10 C         139.9113  140.0843  167.8547 C.2     1  UNL1        0.0631
     11 C         140.9952  140.5768  168.7671 C.3     1  UNL1        0.0724
     12 C         142.1273  141.3915  168.2155 C.2     1  UNL1       -0.0095
     13 C         142.1757  141.7138  166.7513 C.2     1  UNL1        0.0646
     14 C         141.0918  141.2213  165.8388 C.2     1  UNL1        0.0109
     15 C         139.9596  140.4065  166.3905 C.2     1  UNL1        0.0121
     16 C         143.3079  142.5285  166.1997 C.1     1  UNL1        0.1001
     17 N         144.4401  143.3433  165.6482 N.1     1  UNL1       -0.1908
     18 C         137.3599  140.0812  159.9123 C.3     1  UNL1        0.0970
     19 C         138.3813  140.5496  158.9187 C.3     1  UNL1        0.1264
     20 C         140.4346  144.2748  160.3873 C.ar    1  UNL1        0.1593
     21 C         141.8927  144.2391  160.7372 C.ar    1  UNL1        0.1357
     22 N         142.6665  142.9617  160.5976 N.ar    1  UNL1       -0.2392
     23 C         141.9821  141.7200  160.1081 C.ar    1  UNL1        0.0975
     24 C         142.7559  140.4425  159.9685 C.ar    1  UNL1        0.0255
     25 C         142.0715  139.2008  159.4790 C.ar    1  UNL1        0.0623
     26 C         140.6132  139.2365  159.1291 C.ar    1  UNL1        0.2611
     27 O         139.9289  137.9947  158.6395 O.2     1  UNL1       -0.2670
     28 N         139.8395  140.5139  159.2686 N.ar    1  UNL1       -0.2926
     29 C         140.5240  141.7557  159.7582 C.ar    1  UNL1        0.0832
     30 C         139.7502  143.0331  159.8978 C.ar    1  UNL1        0.0573
     31 C         139.6917  146.3103  161.8208 C.3     1  UNL1        0.2525
     32 O         139.6608  145.5522  160.5269 O.3     1  UNL1       -0.4698
@<TRIPOS>BOND
     1    31    32    1
     2    32    20    1
     3    20    21   ar
     4    21    22   ar
     5    22    23   ar
     6    23    24   ar
     7    24    25   ar
     8    25    26   ar
     9    26    27    2
    10    26    28   ar
    11    28    19    1
    12    19    18    1
    13    18     1    1
    14     1     2    1
    15     2     3    1
    16     3     4    1
    17     4     7    1
    18     7     8    2
    19     8     9    1
    20     9    10    2
    21    10    11    1
    22    11    12    1
    23    12    13    2
    24    13    16    1
    25    16    17    3
    26    13    14    1
    27    14    15    2
    28     4     5    1
    29     5     6    1
    30    28    29   ar
    31    29    30   ar
    32    30    20   ar
    33    29    23   ar
    34     6     1    1
    35    15     7    1
    36    15    10    1
@<TRIPOS>MOLECULE
*****
 32 36 0 0 0
SMALL
GASTEIGER

@<TRIPOS>ATOM
      1 N         139.2522  138.7249  161.7922 N.3     1  UNL1       -0.2710
      2 C         139.7678  137.6615  162.7160 C.3     1  UNL1        0.0725
      3 C         139.5481  137.7818  164.1949 C.3     1  UNL1        0.0218
      4 C         138.8127  138.9655  164.7500 C.3     1  UNL1        0.0267
      5 C         138.2971  140.0288  163.8262 C.3     1  UNL1        0.0218
      6 C         138.5169  139.9086  162.3473 C.3     1  UNL1        0.0725
      7 C         138.5929  139.0858  166.2290 C.2     1  UNL1       -0.0021
      8 C         137.4645  138.4741  167.0053 C.2     1  UNL1        0.0942
      9 N         137.6371  138.8492  168.4473 N.2     1  UNL1       -0.2482
     10 C         138.8722  139.6927  168.5622 C.2     1  UNL1        0.0631
     11 C         139.5352  140.3465  169.7382 C.3     1  UNL1        0.0724
     12 C         140.7889  141.1465  169.5431 C.2     1  UNL1       -0.0095
     13 C         141.3797  141.2928  168.1721 C.2     1  UNL1        0.0646
     14 C         140.7166  140.6390  166.9961 C.2     1  UNL1        0.0109
     15 C         139.4629  139.8389  167.1912 C.2     1  UNL1        0.0121
     16 C         142.6334  142.0929  167.9771 C.1     1  UNL1        0.1001
     17 N         143.8871  142.8930  167.7823 N.1     1  UNL1       -0.1908
     18 C         139.4720  138.6046  160.3132 C.3     1  UNL1        0.0970
     19 C         140.6149  139.3270  159.6636 C.3     1  UNL1        0.1264
     20 C         141.1556  143.4662  161.3441 C.ar    1  UNL1        0.1593
     21 C         142.3828  143.7980  162.1402 C.ar    1  UNL1        0.1357
     22 N         143.4297  142.7501  162.3763 N.ar    1  UNL1       -0.2392
     23 C         143.2495  141.3703  161.8161 C.ar    1  UNL1        0.0975
     24 C         144.2965  140.3224  162.0522 C.ar    1  UNL1        0.0255
     25 C         144.1162  138.9427  161.4920 C.ar    1  UNL1        0.0623
     26 C         142.8890  138.6108  160.6958 C.ar    1  UNL1        0.2611
     27 O         142.7088  137.2311  160.1357 O.2     1  UNL1       -0.2670
     28 N         141.8421  139.6588  160.4598 N.ar    1  UNL1       -0.2926
     29 C         142.0223  141.0386  161.0200 C.ar    1  UNL1        0.0832
     30 C         140.9754  142.0865  160.7839 C.ar    1  UNL1        0.0573
     31 C         140.2783  145.5068  159.9963 C.3     1  UNL1        0.2525
     32 O         140.1087  144.5142  161.1080 O.3     1  UNL1       -0.4698
@<TRIPOS>BOND
     1    31    32    1
     2    32    20    1
     3    20    21   ar
     4    21    22   ar
     5    22    23   ar
     6    23    24   ar
     7    24    25   ar
     8    25    26   ar
     9    26    27    2
    10    26    28   ar
    11    28    19    1
    12    19    18    1
    13    18     1    1
    14     1     2    1
    15     2     3    1
    16     3     4    1
    17     4     7    1
    18     7     8    2
    19     8     9    1
    20     9    10    2
    21    10    11    1
    22    11    12    1
    23    12    13    2
    24    13    16    1
    25    16    17    3
    26    13    14    1
    27    14    15    2
    28     4     5    1
    29     5     6    1
    30    28    29   ar
    31    29    30   ar
    32    30    20   ar
    33    29    23   ar
    34     6     1    1
    35    15     7    1
    36    15    10    1
@<TRIPOS>MOLECULE
*****
 32 36 0 0 0
SMALL
GASTEIGER

@<TRIPOS>ATOM
      1 N         140.9702  142.7239  162.7370 N.3     1  UNL1       -0.2710
      2 C         142.3988  142.7793  163.1909 C.3     1  UNL1        0.0725
      3 C         142.8522  141.9357  164.3453 C.3     1  UNL1        0.0218
      4 C         141.8771  141.0366  165.0457 C.3     1  UNL1        0.0267
      5 C         140.4485  140.9812  164.5919 C.3     1  UNL1        0.0218
      6 C         139.9950  141.8248  163.4375 C.3     1  UNL1        0.0725
      7 C         142.3305  140.1930  166.2002 C.2     1  UNL1       -0.0021
      8 C         143.2322  138.9971  166.1176 C.2     1  UNL1        0.0942
      9 N         143.4209  138.4620  167.5062 N.2     1  UNL1       -0.2482
     10 C         142.6357  139.3273  168.4470 C.2     1  UNL1        0.0631
     11 C         142.4474  139.2793  169.9343 C.3     1  UNL1        0.0724
     12 C         141.5852  140.3010  170.6144 C.2     1  UNL1       -0.0095
     13 C         140.9113  141.3708  169.8073 C.2     1  UNL1        0.0646
     14 C         141.0997  141.4188  168.3199 C.2     1  UNL1        0.0109
     15 C         141.9619  140.3971  167.6398 C.2     1  UNL1        0.0121
     16 C         140.0491  142.3925  170.4875 C.1     1  UNL1        0.1001
     17 N         139.1868  143.4141  171.1677 N.1     1  UNL1       -0.1908
     18 C         140.5167  143.5676  161.5825 C.3     1  UNL1        0.0970
     19 C         140.5058  142.9970  160.1954 C.3     1  UNL1        0.1264
     20 C         141.6191  138.6536  160.5763 C.ar    1  UNL1        0.1593
     21 C         142.8914  138.1489  159.9629 C.ar    1  UNL1        0.1357
     22 N         143.7927  139.0920  159.2225 N.ar    1  UNL1       -0.2392
     23 C         143.4216  140.5398  159.0955 C.ar    1  UNL1        0.0975
     24 C         144.3229  141.4829  158.3550 C.ar    1  UNL1        0.0255
     25 C         143.9518  142.9307  158.2280 C.ar    1  UNL1        0.0623
     26 C         142.6794  143.4354  158.8415 C.ar    1  UNL1        0.2611
     27 O         142.3083  144.8832  158.7145 O.2     1  UNL1       -0.2670
     28 N         141.7781  142.4923  159.5819 N.ar    1  UNL1       -0.2926
     29 C         142.1493  141.0444  159.7089 C.ar    1  UNL1        0.0832
     30 C         141.2480  140.1013  160.4493 C.ar    1  UNL1        0.0573
     31 C         139.4029  138.1945  161.8522 C.3     1  UNL1        0.2525
     32 O         140.7178  137.7105  161.3168 O.3     1  UNL1       -0.4698
@<TRIPOS>BOND
     1    31    32    1
     2    32    20    1
     3    20    21   ar
     4    21    22   ar
     5    22    23   ar
     6    23    24   ar
     7    24    25   ar
     8    25    26   ar
     9    26    27    2
    10    26    28   ar
    11    28    19    1
    12    19    18    1
    13    18     1    1
    14     1     2    1
    15     2     3    1
    16     3     4    1
    17     4     7    1
    18     7     8    2
    19     8     9    1
    20     9    10    2
    21    10    11    1
    22    11    12    1
    23    12    13    2
    24    13    16    1
    25    16    17    3
    26    13    14    1
    27    14    15    2
    28     4     5    1
    29     5     6    1
    30    28    29   ar
    31    29    30   ar
    32    30    20   ar
    33    29    23   ar
    34     6     1    1
    35    15     7    1
    36    15    10    1
