@<TRIPOS>MOLECULE
*****
 32 35 0 0 0
SMALL
GASTEIGER

@<TRIPOS>ATOM
      1 C         142.9287  138.9950  168.0461 C.3     1  UNL1        0.0053
      2 C         142.9749  139.8024  166.7828 C.3     1  UNL1        0.0193
      3 C         143.2903  139.1347  165.4770 C.3     1  UNL1        0.0972
      4 O         142.6556  140.4847  163.8031 O.2     1  UNL1       -0.1377
      5 S         141.6283  139.4650  163.4098 S.O2    1  UNL1        0.1161
      6 O         141.2931  140.4499  162.3292 O.2     1  UNL1       -0.1377
      7 N         142.1782  138.6932  164.5725 N.3     1  UNL1       -0.1408
      8 C         141.4207  137.4024  164.6720 C.3     1  UNL1        0.1205
      9 C         140.4026  137.3763  163.5707 C.3     1  UNL1        0.1361
     10 N         140.5309  138.6511  162.7906 N.pl3   1  UNL1       -0.1793
     11 C         139.7066  139.0432  161.6003 C.ar    1  UNL1        0.0729
     12 C         138.3965  139.7475  161.7944 C.ar    1  UNL1        0.0368
     13 C         137.5721  140.1395  160.6042 C.ar    1  UNL1        0.1002
     14 N         138.0579  139.8273  159.2198 N.ar    1  UNL1       -0.2422
     15 C         139.3679  139.1231  159.0257 C.ar    1  UNL1        0.1002
     16 C         140.1924  138.7310  160.2159 C.ar    1  UNL1        0.0368
     17 C         142.5870  139.6577  169.3476 C.3     1  UNL1        0.0474
     18 C         141.3249  139.2877  170.0689 C.3     1  UNL1        0.2054
     19 O         140.0010  139.7813  169.5654 O.3     1  UNL1       -0.4755
     20 C         139.9452  140.7136  168.3916 C.ar    1  UNL1        0.1386
     21 C         140.3943  142.1369  168.5422 C.ar    1  UNL1        0.0369
     22 C         140.3386  143.0691  167.3684 C.ar    1  UNL1        0.0031
     23 C         139.8338  142.5780  166.0440 C.ar    1  UNL1        0.0002
     24 C         139.3847  141.1548  165.8933 C.ar    1  UNL1        0.0031
     25 C         139.4405  140.2226  167.0671 C.ar    1  UNL1        0.0369
     26 C         139.7780  143.5103  164.8701 C.ar    1  UNL1        0.0001
     27 C         138.4685  143.7852  164.1922 C.ar    1  UNL1        0.0009
     28 C         138.4128  144.7175  163.0184 C.ar    1  UNL1        0.0114
     29 C         139.6666  145.3749  162.5225 C.ar    1  UNL1        0.0577
     30 CL        139.6109  146.3071  161.3488 Cl      1  UNL1       -0.0822
     31 C         140.9762  145.0999  163.2005 C.ar    1  UNL1        0.0114
     32 C         141.0318  144.1676  164.3743 C.ar    1  UNL1        0.0009
@<TRIPOS>BOND
     1     4     5    2
     2     5     6    2
     3     5     7    1
     4     7     3    1
     5     3     2    1
     6     2     1    1
     7     1    17    1
     8    17    18    1
     9    18    19    1
    10    19    20    1
    11    20    21   ar
    12    21    22   ar
    13    22    23   ar
    14    23    26    1
    15    26    27   ar
    16    27    28   ar
    17    28    29   ar
    18    29    30    1
    19    29    31   ar
    20    31    32   ar
    21    23    24   ar
    22    24    25   ar
    23     7     8    1
    24     8     9    1
    25     9    10    1
    26    10    11    1
    27    11    12   ar
    28    12    13   ar
    29    13    14   ar
    30    14    15   ar
    31    15    16   ar
    32    10     5    1
    33    16    11   ar
    34    25    20   ar
    35    32    26   ar
@<TRIPOS>MOLECULE
*****
 32 35 0 0 0
SMALL
GASTEIGER

@<TRIPOS>ATOM
      1 C         140.9358  145.5155  161.1324 C.3     1  UNL1        0.0053
      2 C         139.6516  145.8582  161.8274 C.3     1  UNL1        0.0193
      3 C         139.2542  145.1242  163.0738 C.3     1  UNL1        0.0972
      4 O         139.9317  143.7089  164.6756 O.2     1  UNL1       -0.1377
      5 S         139.1920  142.6083  163.9745 S.O2    1  UNL1        0.1161
      6 O         139.7056  141.7600  165.0999 O.2     1  UNL1       -0.1377
      7 N         138.8330  143.6867  162.9956 N.3     1  UNL1       -0.1408
      8 C         137.9789  143.0753  161.9249 C.3     1  UNL1        0.1205
      9 C         137.8100  141.6190  162.2419 C.3     1  UNL1        0.1361
     10 N         138.5597  141.3303  163.5087 N.pl3   1  UNL1       -0.1793
     11 C         138.6597  139.9977  164.1900 C.ar    1  UNL1        0.0729
     12 C         138.0451  139.7996  165.5439 C.ar    1  UNL1        0.0368
     13 C         138.1450  138.4670  166.2252 C.ar    1  UNL1        0.1002
     14 N         138.8595  137.3325  165.5525 N.ar    1  UNL1       -0.2422
     15 C         139.4740  137.5306  164.1987 C.ar    1  UNL1        0.1002
     16 C         139.3741  138.8632  163.5173 C.ar    1  UNL1        0.0368
     17 C         140.9768  144.3852  160.1471 C.3     1  UNL1        0.0474
     18 C         142.2259  143.5688  159.9938 C.3     1  UNL1        0.2054
     19 O         143.3681  143.7593  160.9471 O.3     1  UNL1       -0.4755
     20 C         143.2819  143.2101  162.3403 C.ar    1  UNL1        0.1386
     21 C         143.5182  144.1097  163.5171 C.ar    1  UNL1        0.0369
     22 C         143.4319  143.5605  164.9102 C.ar    1  UNL1        0.0031
     23 C         143.1093  142.1117  165.1266 C.ar    1  UNL1        0.0002
     24 C         142.8729  141.2121  163.9498 C.ar    1  UNL1        0.0031
     25 C         142.9592  141.7613  162.5567 C.ar    1  UNL1        0.0369
     26 C         143.0230  141.5625  166.5198 C.ar    1  UNL1        0.0001
     27 C         143.2862  142.4557  167.6957 C.ar    1  UNL1        0.0009
     28 C         143.2000  141.9065  169.0890 C.ar    1  UNL1        0.0114
     29 C         142.8505  140.4641  169.3062 C.ar    1  UNL1        0.0577
     30 CL        142.7642  139.9149  170.6993 Cl      1  UNL1       -0.0822
     31 C         142.5872  139.5708  168.1302 C.ar    1  UNL1        0.0114
     32 C         142.6735  140.1200  166.7371 C.ar    1  UNL1        0.0009
@<TRIPOS>BOND
     1     4     5    2
     2     5     6    2
     3     5     7    1
     4     7     3    1
     5     3     2    1
     6     2     1    1
     7     1    17    1
     8    17    18    1
     9    18    19    1
    10    19    20    1
    11    20    21   ar
    12    21    22   ar
    13    22    23   ar
    14    23    26    1
    15    26    27   ar
    16    27    28   ar
    17    28    29   ar
    18    29    30    1
    19    29    31   ar
    20    31    32   ar
    21    23    24   ar
    22    24    25   ar
    23     7     8    1
    24     8     9    1
    25     9    10    1
    26    10    11    1
    27    11    12   ar
    28    12    13   ar
    29    13    14   ar
    30    14    15   ar
    31    15    16   ar
    32    10     5    1
    33    16    11   ar
    34    25    20   ar
    35    32    26   ar
@<TRIPOS>MOLECULE
*****
 32 35 0 0 0
SMALL
GASTEIGER

@<TRIPOS>ATOM
      1 C         144.6622  142.6352  161.5141 C.3     1  UNL1        0.0053
      2 C         145.1714  141.6041  162.4772 C.3     1  UNL1        0.0193
      3 C         144.2060  140.7173  163.2064 C.3     1  UNL1        0.0972
      4 O         143.0418  139.2228  164.4059 O.2     1  UNL1       -0.1377
      5 S         142.9141  140.2431  165.4980 S.O2    1  UNL1        0.1161
      6 O         142.1502  139.1619  166.2034 O.2     1  UNL1       -0.1377
      7 N         143.7046  141.1110  164.5642 N.3     1  UNL1       -0.1408
      8 C         143.9058  142.4416  165.2267 C.3     1  UNL1        0.1205
      9 C         143.2396  142.3962  166.5698 C.3     1  UNL1        0.1361
     10 N         142.6266  141.0374  166.7375 N.pl3   1  UNL1       -0.1793
     11 C         141.8608  140.5573  167.9345 C.ar    1  UNL1        0.0729
     12 C         140.3860  140.8130  168.0334 C.ar    1  UNL1        0.0368
     13 C         139.6202  140.3329  169.2304 C.ar    1  UNL1        0.1002
     14 N         140.3291  139.5970  170.3286 N.ar    1  UNL1       -0.2422
     15 C         141.8037  139.3413  170.2297 C.ar    1  UNL1        0.1002
     16 C         142.5697  139.8214  169.0327 C.ar    1  UNL1        0.0368
     17 C         144.8209  142.4253  160.0374 C.3     1  UNL1        0.0474
     18 C         143.7059  142.7923  159.1035 C.3     1  UNL1        0.2054
     19 O         142.5663  141.8416  158.8858 O.3     1  UNL1       -0.4755
     20 C         141.8321  141.2690  160.0619 C.ar    1  UNL1        0.1386
     21 C         141.2237  142.1832  161.0837 C.ar    1  UNL1        0.0369
     22 C         140.4895  141.6106  162.2597 C.ar    1  UNL1        0.0031
     23 C         140.3637  140.1238  162.4140 C.ar    1  UNL1        0.0002
     24 C         140.9722  139.2097  161.3922 C.ar    1  UNL1        0.0031
     25 C         141.7063  139.7823  160.2162 C.ar    1  UNL1        0.0369
     26 C         139.6295  139.5513  163.5901 C.ar    1  UNL1        0.0001
     27 C         139.7493  138.0908  163.9104 C.ar    1  UNL1        0.0009
     28 C         139.0150  137.5182  165.0865 C.ar    1  UNL1        0.0114
     29 C         138.1611  138.4062  165.9422 C.ar    1  UNL1        0.0577
     30 CL        137.4268  137.8337  167.1183 Cl      1  UNL1       -0.0822
     31 C         138.0413  139.8667  165.6218 C.ar    1  UNL1        0.0114
     32 C         138.7755  140.4392  164.4458 C.ar    1  UNL1        0.0009
@<TRIPOS>BOND
     1     4     5    2
     2     5     6    2
     3     5     7    1
     4     7     3    1
     5     3     2    1
     6     2     1    1
     7     1    17    1
     8    17    18    1
     9    18    19    1
    10    19    20    1
    11    20    21   ar
    12    21    22   ar
    13    22    23   ar
    14    23    26    1
    15    26    27   ar
    16    27    28   ar
    17    28    29   ar
    18    29    30    1
    19    29    31   ar
    20    31    32   ar
    21    23    24   ar
    22    24    25   ar
    23     7     8    1
    24     8     9    1
    25     9    10    1
    26    10    11    1
    27    11    12   ar
    28    12    13   ar
    29    13    14   ar
    30    14    15   ar
    31    15    16   ar
    32    10     5    1
    33    16    11   ar
    34    25    20   ar
    35    32    26   ar
@<TRIPOS>MOLECULE
*****
 32 35 0 0 0
SMALL
GASTEIGER

@<TRIPOS>ATOM
      1 C         144.7052  142.3768  158.4797 C.3     1  UNL1        0.0053
      2 C         144.0215  142.8671  159.7215 C.3     1  UNL1        0.0193
      3 C         144.6669  142.6689  161.0610 C.3     1  UNL1        0.0972
      4 O         145.4402  141.3921  162.7341 O.2     1  UNL1       -0.1377
      5 S         144.1744  141.6681  163.4902 S.O2    1  UNL1        0.1161
      6 O         144.7965  140.7950  164.5394 O.2     1  UNL1       -0.1377
      7 N         143.8170  142.4835  162.2830 N.3     1  UNL1       -0.1408
      8 C         142.4603  143.0810  162.5123 C.3     1  UNL1        0.1205
      9 C         141.9793  142.6349  163.8612 C.3     1  UNL1        0.1361
     10 N         143.0387  141.7616  164.4656 N.pl3   1  UNL1       -0.1793
     11 C         142.9738  141.0984  165.8094 C.ar    1  UNL1        0.0729
     12 C         142.9146  141.9320  167.0551 C.ar    1  UNL1        0.0368
     13 C         142.8496  141.2688  168.3990 C.ar    1  UNL1        0.1002
     14 N         142.8439  139.7720  168.4971 N.ar    1  UNL1       -0.2422
     15 C         142.9031  138.9385  167.2515 C.ar    1  UNL1        0.1002
     16 C         142.9680  139.6017  165.9076 C.ar    1  UNL1        0.0368
     17 C         143.9423  141.5675  157.4732 C.3     1  UNL1        0.0474
     18 C         143.6179  140.1307  157.7567 C.3     1  UNL1        0.2054
     19 O         144.0829  139.4945  159.0330 O.3     1  UNL1       -0.4755
     20 C         143.1355  139.3484  160.1869 C.ar    1  UNL1        0.1386
     21 C         141.8400  140.1044  160.1940 C.ar    1  UNL1        0.0369
     22 C         140.8928  139.9583  161.3477 C.ar    1  UNL1        0.0031
     23 C         141.2409  139.0561  162.4944 C.ar    1  UNL1        0.0002
     24 C         142.5364  138.3000  162.4873 C.ar    1  UNL1        0.0031
     25 C         143.4837  138.4462  161.3335 C.ar    1  UNL1        0.0369
     26 C         140.2936  138.9100  163.6482 C.ar    1  UNL1        0.0001
     27 C         139.5326  140.1015  164.1493 C.ar    1  UNL1        0.0009
     28 C         138.5852  139.9553  165.3031 C.ar    1  UNL1        0.0114
     29 C         138.3989  138.6177  165.9558 C.ar    1  UNL1        0.0577
     30 CL        137.4516  138.4715  167.1095 Cl      1  UNL1       -0.0822
     31 C         139.1599  137.4261  165.4546 C.ar    1  UNL1        0.0114
     32 C         140.1072  137.5723  164.3008 C.ar    1  UNL1        0.0009
@<TRIPOS>BOND
     1     4     5    2
     2     5     6    2
     3     5     7    1
     4     7     3    1
     5     3     2    1
     6     2     1    1
     7     1    17    1
     8    17    18    1
     9    18    19    1
    10    19    20    1
    11    20    21   ar
    12    21    22   ar
    13    22    23   ar
    14    23    26    1
    15    26    27   ar
    16    27    28   ar
    17    28    29   ar
    18    29    30    1
    19    29    31   ar
    20    31    32   ar
    21    23    24   ar
    22    24    25   ar
    23     7     8    1
    24     8     9    1
    25     9    10    1
    26    10    11    1
    27    11    12   ar
    28    12    13   ar
    29    13    14   ar
    30    14    15   ar
    31    15    16   ar
    32    10     5    1
    33    16    11   ar
    34    25    20   ar
    35    32    26   ar
@<TRIPOS>MOLECULE
*****
 32 35 0 0 0
SMALL
GASTEIGER

@<TRIPOS>ATOM
      1 C         139.5645  139.7042  168.0159 C.3     1  UNL1        0.0053
      2 C         138.2706  139.2941  167.3774 C.3     1  UNL1        0.0193
      3 C         138.2803  138.5210  166.0920 C.3     1  UNL1        0.0972
      4 O         139.8595  137.3015  165.0689 O.2     1  UNL1       -0.1377
      5 S         140.0341  138.4136  164.0776 S.O2    1  UNL1        0.1161
      6 O         141.0701  137.5077  163.4809 O.2     1  UNL1       -0.1377
      7 N         138.9616  139.0871  164.8815 N.3     1  UNL1       -0.1408
      8 C         138.6899  140.4260  164.2623 C.3     1  UNL1        0.1205
      9 C         139.5944  140.5801  163.0757 C.3     1  UNL1        0.1361
     10 N         140.4252  139.3364  162.9615 N.pl3   1  UNL1       -0.1793
     11 C         141.4647  139.0633  161.9151 C.ar    1  UNL1        0.0729
     12 C         142.9138  139.3081  162.2155 C.ar    1  UNL1        0.0368
     13 C         143.9532  139.0350  161.1691 C.ar    1  UNL1        0.1002
     14 N         143.5435  138.5173  159.8222 N.ar    1  UNL1       -0.2422
     15 C         142.0945  138.2726  159.5218 C.ar    1  UNL1        0.1002
     16 C         141.0550  138.5456  160.5682 C.ar    1  UNL1        0.0368
     17 C         139.5909  140.1212  169.4565 C.3     1  UNL1        0.0474
     18 C         139.4154  141.5652  169.8226 C.3     1  UNL1        0.2054
     19 O         140.5094  142.5502  169.5348 O.3     1  UNL1       -0.4755
     20 C         141.1673  142.5678  168.1868 C.ar    1  UNL1        0.1386
     21 C         140.3769  142.9523  166.9714 C.ar    1  UNL1        0.0369
     22 C         141.0348  142.9698  165.6235 C.ar    1  UNL1        0.0031
     23 C         142.4831  142.6028  165.4910 C.ar    1  UNL1        0.0002
     24 C         143.2735  142.2182  166.7064 C.ar    1  UNL1        0.0031
     25 C         142.6156  142.2007  168.0543 C.ar    1  UNL1        0.0369
     26 C         143.1410  142.6203  164.1431 C.ar    1  UNL1        0.0001
     27 C         144.5786  142.2152  164.0049 C.ar    1  UNL1        0.0009
     28 C         145.2365  142.2327  162.6569 C.ar    1  UNL1        0.0114
     29 C         144.4567  142.6553  161.4472 C.ar    1  UNL1        0.0577
     30 CL        145.1145  142.6728  160.0993 Cl      1  UNL1       -0.0822
     31 C         143.0190  143.0604  161.5855 C.ar    1  UNL1        0.0114
     32 C         142.3612  143.0429  162.9334 C.ar    1  UNL1        0.0009
@<TRIPOS>BOND
     1     4     5    2
     2     5     6    2
     3     5     7    1
     4     7     3    1
     5     3     2    1
     6     2     1    1
     7     1    17    1
     8    17    18    1
     9    18    19    1
    10    19    20    1
    11    20    21   ar
    12    21    22   ar
    13    22    23   ar
    14    23    26    1
    15    26    27   ar
    16    27    28   ar
    17    28    29   ar
    18    29    30    1
    19    29    31   ar
    20    31    32   ar
    21    23    24   ar
    22    24    25   ar
    23     7     8    1
    24     8     9    1
    25     9    10    1
    26    10    11    1
    27    11    12   ar
    28    12    13   ar
    29    13    14   ar
    30    14    15   ar
    31    15    16   ar
    32    10     5    1
    33    16    11   ar
    34    25    20   ar
    35    32    26   ar
@<TRIPOS>MOLECULE
*****
 32 35 0 0 0
SMALL
GASTEIGER

@<TRIPOS>ATOM
      1 C         137.6192  140.0248  160.5141 C.3     1  UNL1        0.0053
      2 C         138.2597  140.7934  159.3966 C.3     1  UNL1        0.0193
      3 C         138.6064  142.2407  159.5840 C.3     1  UNL1        0.0972
      4 O         140.8179  142.2186  159.9538 O.2     1  UNL1       -0.1377
      5 S         140.5646  142.7772  161.3227 S.O2    1  UNL1        0.1161
      6 O         142.0577  142.7150  161.4525 O.2     1  UNL1       -0.1377
      7 N         139.1245  142.7226  160.9067 N.3     1  UNL1       -0.1408
      8 C         138.2933  143.2346  162.0455 C.3     1  UNL1        0.1205
      9 C         139.2197  143.6056  163.1654 C.3     1  UNL1        0.1361
     10 N         140.6235  143.3229  162.7186 N.pl3   1  UNL1       -0.1793
     11 C         141.8677  143.5467  163.5261 C.ar    1  UNL1        0.0729
     12 C         142.6224  144.8367  163.3989 C.ar    1  UNL1        0.0368
     13 C         143.8666  145.0605  164.2064 C.ar    1  UNL1        0.1002
     14 N         144.3560  143.9941  165.1409 N.ar    1  UNL1       -0.2422
     15 C         143.6013  142.7042  165.2680 C.ar    1  UNL1        0.1002
     16 C         142.3571  142.4803  164.4606 C.ar    1  UNL1        0.0368
     17 C         138.4718  139.2671  161.4882 C.3     1  UNL1        0.0474
     18 C         137.9686  137.9878  162.0885 C.3     1  UNL1        0.2054
     19 O         138.7116  137.3490  163.2242 O.3     1  UNL1       -0.4755
     20 C         139.3232  138.2031  164.2950 C.ar    1  UNL1        0.1386
     21 C         140.7942  138.1159  164.5750 C.ar    1  UNL1        0.0369
     22 C         141.4057  138.9700  165.6458 C.ar    1  UNL1        0.0031
     23 C         140.5462  139.9112  166.4366 C.ar    1  UNL1        0.0002
     24 C         139.0752  139.9984  166.1566 C.ar    1  UNL1        0.0031
     25 C         138.4637  139.1444  165.0858 C.ar    1  UNL1        0.0369
     26 C         141.1578  140.7653  167.5074 C.ar    1  UNL1        0.0001
     27 C         142.4622  140.3663  168.1313 C.ar    1  UNL1        0.0009
     28 C         143.0738  141.2204  169.2021 C.ar    1  UNL1        0.0114
     29 C         142.3810  142.4735  169.6489 C.ar    1  UNL1        0.0577
     30 CL        142.9925  143.3275  170.7197 Cl      1  UNL1       -0.0822
     31 C         141.0765  142.8725  169.0250 C.ar    1  UNL1        0.0114
     32 C         140.4650  142.0184  167.9542 C.ar    1  UNL1        0.0009
@<TRIPOS>BOND
     1     4     5    2
     2     5     6    2
     3     5     7    1
     4     7     3    1
     5     3     2    1
     6     2     1    1
     7     1    17    1
     8    17    18    1
     9    18    19    1
    10    19    20    1
    11    20    21   ar
    12    21    22   ar
    13    22    23   ar
    14    23    26    1
    15    26    27   ar
    16    27    28   ar
    17    28    29   ar
    18    29    30    1
    19    29    31   ar
    20    31    32   ar
    21    23    24   ar
    22    24    25   ar
    23     7     8    1
    24     8     9    1
    25     9    10    1
    26    10    11    1
    27    11    12   ar
    28    12    13   ar
    29    13    14   ar
    30    14    15   ar
    31    15    16   ar
    32    10     5    1
    33    16    11   ar
    34    25    20   ar
    35    32    26   ar
@<TRIPOS>MOLECULE
*****
 32 35 0 0 0
SMALL
GASTEIGER

@<TRIPOS>ATOM
      1 C         142.7251  139.0977  169.1570 C.3     1  UNL1        0.0053
      2 C         142.8624  139.5034  167.7195 C.3     1  UNL1        0.0193
      3 C         143.0366  138.4575  166.6584 C.3     1  UNL1        0.0972
      4 O         141.6304  137.8834  165.0089 O.2     1  UNL1       -0.1377
      5 S         142.5430  138.5659  164.0336 S.O2    1  UNL1        0.1161
      6 O         141.5298  138.1259  163.0188 O.2     1  UNL1       -0.1377
      7 N         143.3655  138.8632  165.2522 N.3     1  UNL1       -0.1408
      8 C         144.5745  139.6374  164.8179 C.3     1  UNL1        0.1205
      9 C         144.4994  139.8187  163.3308 C.3     1  UNL1        0.1361
     10 N         143.2438  139.1564  162.8460 N.pl3   1  UNL1       -0.1793
     11 C         142.7719  139.0953  161.4235 C.ar    1  UNL1        0.0729
     12 C         141.9175  140.1964  160.8688 C.ar    1  UNL1        0.0368
     13 C         141.4456  140.1354  159.4463 C.ar    1  UNL1        0.1002
     14 N         141.8280  138.9733  158.5785 N.ar    1  UNL1       -0.2422
     15 C         142.6823  137.8722  159.1332 C.ar    1  UNL1        0.1002
     16 C         143.1543  137.9332  160.5557 C.ar    1  UNL1        0.0368
     17 C         141.9497  139.9597  170.1087 C.3     1  UNL1        0.0474
     18 C         140.7026  140.6535  169.6464 C.3     1  UNL1        0.2054
     19 O         139.5851  139.8602  169.0367 O.3     1  UNL1       -0.4755
     20 C         139.3138  139.9559  167.5645 C.ar    1  UNL1        0.1386
     21 C         138.4685  138.9173  166.8886 C.ar    1  UNL1        0.0369
     22 C         138.1971  139.0130  165.4165 C.ar    1  UNL1        0.0031
     23 C         138.7711  140.1472  164.6202 C.ar    1  UNL1        0.0002
     24 C         139.6164  141.1858  165.2961 C.ar    1  UNL1        0.0031
     25 C         139.8877  141.0901  166.7682 C.ar    1  UNL1        0.0369
     26 C         138.4998  140.2428  163.1480 C.ar    1  UNL1        0.0001
     27 C         138.1002  139.0192  162.3780 C.ar    1  UNL1        0.0009
     28 C         137.8289  139.1148  160.9058 C.ar    1  UNL1        0.0114
     29 C         137.9571  140.4342  160.2037 C.ar    1  UNL1        0.0577
     30 CL        137.6857  140.5298  158.7316 Cl      1  UNL1       -0.0822
     31 C         138.3566  141.6579  160.9738 C.ar    1  UNL1        0.0114
     32 C         138.6279  141.5622  162.4459 C.ar    1  UNL1        0.0009
@<TRIPOS>BOND
     1     4     5    2
     2     5     6    2
     3     5     7    1
     4     7     3    1
     5     3     2    1
     6     2     1    1
     7     1    17    1
     8    17    18    1
     9    18    19    1
    10    19    20    1
    11    20    21   ar
    12    21    22   ar
    13    22    23   ar
    14    23    26    1
    15    26    27   ar
    16    27    28   ar
    17    28    29   ar
    18    29    30    1
    19    29    31   ar
    20    31    32   ar
    21    23    24   ar
    22    24    25   ar
    23     7     8    1
    24     8     9    1
    25     9    10    1
    26    10    11    1
    27    11    12   ar
    28    12    13   ar
    29    13    14   ar
    30    14    15   ar
    31    15    16   ar
    32    10     5    1
    33    16    11   ar
    34    25    20   ar
    35    32    26   ar
@<TRIPOS>MOLECULE
*****
 32 35 0 0 0
SMALL
GASTEIGER

@<TRIPOS>ATOM
      1 C         139.6372  143.6209  159.0664 C.3     1  UNL1        0.0053
      2 C         140.1518  142.5471  158.1542 C.3     1  UNL1        0.0193
      3 C         140.4353  141.1766  158.6942 C.3     1  UNL1        0.0972
      4 O         141.2599  140.8260  160.7496 O.2     1  UNL1       -0.1377
      5 S         139.9236  140.2827  161.1608 S.O2    1  UNL1        0.1161
      6 O         140.5858  140.0955  162.4936 O.2     1  UNL1       -0.1377
      7 N         139.5407  140.5834  159.7420 N.3     1  UNL1       -0.1408
      8 C         138.1063  140.1868  159.5549 C.3     1  UNL1        0.1205
      9 C         137.6025  139.6410  160.8581 C.3     1  UNL1        0.1361
     10 N         138.7257  139.7003  161.8506 N.pl3   1  UNL1       -0.1793
     11 C         138.6622  139.2552  163.2817 C.ar    1  UNL1        0.0729
     12 C         139.0840  137.8647  163.6541 C.ar    1  UNL1        0.0368
     13 C         139.0204  137.4197  165.0851 C.ar    1  UNL1        0.1002
     14 N         138.5351  138.3651  166.1437 N.ar    1  UNL1       -0.2422
     15 C         138.1134  139.7555  165.7713 C.ar    1  UNL1        0.1002
     16 C         138.1769  140.2006  164.3403 C.ar    1  UNL1        0.0368
     17 C         140.5160  144.1668  160.1526 C.3     1  UNL1        0.0474
     18 C         140.4326  145.6170  160.5269 C.3     1  UNL1        0.2054
     19 O         139.9914  146.0117  161.9051 O.3     1  UNL1       -0.4755
     20 C         140.2061  145.0764  163.0580 C.ar    1  UNL1        0.1386
     21 C         141.5863  144.5827  163.3763 C.ar    1  UNL1        0.0369
     22 C         141.8009  143.6474  164.5292 C.ar    1  UNL1        0.0031
     23 C         140.6354  143.2058  165.3637 C.ar    1  UNL1        0.0002
     24 C         139.2552  143.6994  165.0454 C.ar    1  UNL1        0.0031
     25 C         139.0406  144.6347  163.8926 C.ar    1  UNL1        0.0369
     26 C         140.8501  142.2704  166.5166 C.ar    1  UNL1        0.0001
     27 C         141.4832  140.9301  166.2871 C.ar    1  UNL1        0.0009
     28 C         141.6979  139.9947  167.4400 C.ar    1  UNL1        0.0114
     29 C         141.2794  140.3998  168.8224 C.ar    1  UNL1        0.0577
     30 CL        141.4940  139.4645  169.9752 Cl      1  UNL1       -0.0822
     31 C         140.6462  141.7402  169.0518 C.ar    1  UNL1        0.0114
     32 C         140.4316  142.6754  167.8989 C.ar    1  UNL1        0.0009
@<TRIPOS>BOND
     1     4     5    2
     2     5     6    2
     3     5     7    1
     4     7     3    1
     5     3     2    1
     6     2     1    1
     7     1    17    1
     8    17    18    1
     9    18    19    1
    10    19    20    1
    11    20    21   ar
    12    21    22   ar
    13    22    23   ar
    14    23    26    1
    15    26    27   ar
    16    27    28   ar
    17    28    29   ar
    18    29    30    1
    19    29    31   ar
    20    31    32   ar
    21    23    24   ar
    22    24    25   ar
    23     7     8    1
    24     8     9    1
    25     9    10    1
    26    10    11    1
    27    11    12   ar
    28    12    13   ar
    29    13    14   ar
    30    14    15   ar
    31    15    16   ar
    32    10     5    1
    33    16    11   ar
    34    25    20   ar
    35    32    26   ar
@<TRIPOS>MOLECULE
*****
 32 35 0 0 0
SMALL
GASTEIGER

@<TRIPOS>ATOM
      1 C         142.8515  139.6981  169.0243 C.3     1  UNL1        0.0053
      2 C         142.8669  139.1621  167.6234 C.3     1  UNL1        0.0193
      3 C         142.9446  140.1059  166.4601 C.3     1  UNL1        0.0972
      4 O         143.2936  141.4804  164.7233 O.2     1  UNL1       -0.1377
      5 S         142.8050  140.3982  163.8068 S.O2    1  UNL1        0.1161
      6 O         143.0787  141.4048  162.7289 O.2     1  UNL1       -0.1377
      7 N         142.6333  139.6179  165.0763 N.3     1  UNL1       -0.1408
      8 C         142.0958  138.2639  164.7191 C.3     1  UNL1        0.1205
      9 C         141.9352  138.2073  163.2288 C.3     1  UNL1        0.1361
     10 N         142.3735  139.5265  162.6649 N.pl3   1  UNL1       -0.1793
     11 C         142.3793  139.9070  161.2140 C.ar    1  UNL1        0.0729
     12 C         141.2049  140.6294  160.6234 C.ar    1  UNL1        0.0368
     13 C         141.2107  141.0099  159.1725 C.ar    1  UNL1        0.1002
     14 N         142.3909  140.6680  158.3122 N.ar    1  UNL1       -0.2422
     15 C         143.5653  139.9456  158.9028 C.ar    1  UNL1        0.1002
     16 C         143.5595  139.5650  160.3537 C.ar    1  UNL1        0.0368
     17 C         141.8978  139.1312  170.0337 C.3     1  UNL1        0.0474
     18 C         140.6166  139.8486  170.3406 C.3     1  UNL1        0.2054
     19 O         139.5094  139.8723  169.3290 O.3     1  UNL1       -0.4755
     20 C         139.6558  140.6835  168.0757 C.ar    1  UNL1        0.1386
     21 C         139.2077  140.1190  166.7603 C.ar    1  UNL1        0.0369
     22 C         139.3541  140.9302  165.5071 C.ar    1  UNL1        0.0031
     23 C         139.9487  142.3059  165.5694 C.ar    1  UNL1        0.0002
     24 C         140.3968  142.8704  166.8848 C.ar    1  UNL1        0.0031
     25 C         140.2504  142.0592  168.1380 C.ar    1  UNL1        0.0369
     26 C         140.0951  143.1171  164.3161 C.ar    1  UNL1        0.0001
     27 C         139.2172  142.8347  163.1331 C.ar    1  UNL1        0.0009
     28 C         139.3636  143.6459  161.8798 C.ar    1  UNL1        0.0114
     29 C         140.3879  144.7395  161.8097 C.ar    1  UNL1        0.0577
     30 CL        140.5343  145.5507  160.5565 Cl      1  UNL1       -0.0822
     31 C         141.2658  145.0219  162.9928 C.ar    1  UNL1        0.0114
     32 C         141.1193  144.2107  164.2460 C.ar    1  UNL1        0.0009
@<TRIPOS>BOND
     1     4     5    2
     2     5     6    2
     3     5     7    1
     4     7     3    1
     5     3     2    1
     6     2     1    1
     7     1    17    1
     8    17    18    1
     9    18    19    1
    10    19    20    1
    11    20    21   ar
    12    21    22   ar
    13    22    23   ar
    14    23    26    1
    15    26    27   ar
    16    27    28   ar
    17    28    29   ar
    18    29    30    1
    19    29    31   ar
    20    31    32   ar
    21    23    24   ar
    22    24    25   ar
    23     7     8    1
    24     8     9    1
    25     9    10    1
    26    10    11    1
    27    11    12   ar
    28    12    13   ar
    29    13    14   ar
    30    14    15   ar
    31    15    16   ar
    32    10     5    1
    33    16    11   ar
    34    25    20   ar
    35    32    26   ar
