@<TRIPOS>MOLECULE
*****
 27 30 0 0 0
SMALL
GASTEIGER

@<TRIPOS>ATOM
      1 C         143.2402  143.8714  162.4093 C.2     1  UNL1        0.3179
      2 N         143.9441  143.6122  161.1103 N.2     1  UNL1        0.0095
      3 C         144.8356  142.4145  160.9663 C.2     1  UNL1        0.4717
      4 N         145.0232  141.4760  162.1213 N.2     1  UNL1        0.0158
      5 C         144.3192  141.7352  163.4203 C.2     1  UNL1        0.3712
      6 N         144.3112  140.9920  164.7232 N.2     1  UNL1       -0.0378
      7 C         143.4147  141.7305  165.6725 C.2     1  UNL1        0.1900
      8 C         142.8687  142.9300  164.9562 C.2     1  UNL1        0.0447
      9 C         143.4278  142.9328  163.5642 C.3     1  UNL1        0.2425
     10 C         143.1166  141.3382  167.0893 C.ar    1  UNL1        0.0427
     11 C         143.2578  142.3453  168.1919 C.ar    1  UNL1        0.0037
     12 C         142.9597  141.9530  169.6086 C.ar    1  UNL1        0.0001
     13 C         142.5204  140.5536  169.9228 C.ar    1  UNL1        0.0000
     14 C         142.3791  139.5465  168.8202 C.ar    1  UNL1        0.0001
     15 C         142.6772  139.9388  167.4035 C.ar    1  UNL1        0.0037
     16 N         142.3486  145.0691  162.5533 N.pl3   1  UNL1       -0.2192
     17 H         142.6813  145.8792  163.0032 H       1  UNL1        0.2922
     18 CA        140.9502  145.0326  162.0118 C.3     1  UNL1        0.2087
     19 C         139.8203  144.5705  162.8835 C.ar    1  UNL1        0.0222
     20 C         138.7506  143.6842  162.3176 C.ar    1  UNL1       -0.0004
     21 C         137.6207  143.2221  163.1892 C.ar    1  UNL1       -0.0002
     22 C         137.5605  143.6463  164.6267 C.ar    1  UNL1       -0.0000
     23 C         138.6301  144.5326  165.1926 C.ar    1  UNL1       -0.0002
     24 C         139.7601  144.9947  164.3210 C.ar    1  UNL1       -0.0004
     25 O         141.8129  145.5619  159.6190 O.3     1  UNL1       -0.3780
     26 C         140.6818  145.4582  160.5987 C.3     1  UNL1        0.1886
     27 H         141.4696  145.8474  158.7578 H       1  UNL1        0.2106
@<TRIPOS>BOND
     1    25    26    1
     2    18    26    1
     3    18    16    1
     4    16     1    1
     5     1     2    2
     6     2     3    1
     7     3     4    2
     8     4     5    1
     9     5     6    2
    10     6     7    1
    11     7    10    1
    12    10    11   ar
    13    11    12   ar
    14    12    13   ar
    15    13    14   ar
    16    14    15   ar
    17     7     8    2
    18     8     9    1
    19    18    19    1
    20    19    20   ar
    21    20    21   ar
    22    21    22   ar
    23    22    23   ar
    24    23    24   ar
    25     9     1    1
    26    24    19   ar
    27     9     5    1
    28    15    10   ar
    29    25    27    1
    30    16    17    1
@<TRIPOS>MOLECULE
*****
 27 30 0 0 0
SMALL
GASTEIGER

@<TRIPOS>ATOM
      1 C         138.6335  143.3358  163.1246 C.2     1  UNL1        0.3179
      2 N         137.7139  142.4982  162.2864 N.2     1  UNL1        0.0095
      3 C         137.3224  141.1251  162.7460 C.2     1  UNL1        0.4717
      4 N         137.8506  140.5897  164.0439 N.2     1  UNL1        0.0158
      5 C         138.7702  141.4273  164.8820 C.2     1  UNL1        0.3712
      6 N         139.4442  141.1690  166.1969 N.2     1  UNL1       -0.0378
      7 C         140.2522  142.3824  166.5500 C.2     1  UNL1        0.1900
      8 C         140.0776  143.3907  165.4533 C.2     1  UNL1        0.0447
      9 C         139.1617  142.8004  164.4224 C.3     1  UNL1        0.2425
     10 C         141.0881  142.5569  167.7833 C.ar    1  UNL1        0.0427
     11 C         140.5019  143.2081  169.0007 C.ar    1  UNL1        0.0037
     12 C         141.3377  143.3825  170.2339 C.ar    1  UNL1        0.0001
     13 C         142.7599  142.9058  170.2497 C.ar    1  UNL1        0.0000
     14 C         143.3461  142.2546  169.0322 C.ar    1  UNL1        0.0001
     15 C         142.5103  142.0802  167.7990 C.ar    1  UNL1        0.0037
     16 N         139.0251  144.7090  162.6649 N.pl3   1  UNL1       -0.2192
     17 H         138.4283  145.4735  162.8341 H       1  UNL1        0.2922
     18 CA        140.3258  144.9173  161.9475 C.3     1  UNL1        0.2087
     19 C         141.6104  144.4671  162.5777 C.ar    1  UNL1        0.0222
     20 C         142.3262  145.3636  163.5442 C.ar    1  UNL1       -0.0004
     21 C         143.6108  144.9133  164.1744 C.ar    1  UNL1       -0.0002
     22 C         144.1795  143.5667  163.8382 C.ar    1  UNL1       -0.0000
     23 C         143.4637  142.6702  162.8719 C.ar    1  UNL1       -0.0002
     24 C         142.1791  143.1204  162.2416 C.ar    1  UNL1       -0.0004
     25 O         141.6159  145.6371  159.8103 O.3     1  UNL1       -0.3780
     26 C         140.3420  145.5758  160.5998 C.3     1  UNL1        0.1886
     27 H         141.4535  146.0923  158.9693 H       1  UNL1        0.2106
@<TRIPOS>BOND
     1    25    26    1
     2    18    26    1
     3    18    16    1
     4    16     1    1
     5     1     2    2
     6     2     3    1
     7     3     4    2
     8     4     5    1
     9     5     6    2
    10     6     7    1
    11     7    10    1
    12    10    11   ar
    13    11    12   ar
    14    12    13   ar
    15    13    14   ar
    16    14    15   ar
    17     7     8    2
    18     8     9    1
    19    18    19    1
    20    19    20   ar
    21    20    21   ar
    22    21    22   ar
    23    22    23   ar
    24    23    24   ar
    25     9     1    1
    26    24    19   ar
    27     9     5    1
    28    15    10   ar
    29    25    27    1
    30    16    17    1
@<TRIPOS>MOLECULE
*****
 27 30 0 0 0
SMALL
GASTEIGER

@<TRIPOS>ATOM
      1 C         140.8038  138.1023  162.7520 C.2     1  UNL1        0.3179
      2 N         139.9803  137.7601  161.5459 N.2     1  UNL1        0.0095
      3 C         138.5532  138.2137  161.4590 C.2     1  UNL1        0.4717
      4 N         137.9496  139.0094  162.5781 N.2     1  UNL1        0.0158
      5 C         138.7731  139.3516  163.7842 C.2     1  UNL1        0.3712
      6 N         138.4529  140.1165  165.0341 N.2     1  UNL1       -0.0378
      7 C         139.6821  140.1358  165.8936 C.2     1  UNL1        0.1900
      8 C         140.7621  139.3827  165.1749 C.2     1  UNL1        0.0447
      9 C         140.2002  138.8980  163.8712 C.3     1  UNL1        0.2425
     10 C         139.8091  140.7928  167.2361 C.ar    1  UNL1        0.0427
     11 C         139.2919  140.1002  168.4620 C.ar    1  UNL1        0.0037
     12 C         139.4188  140.7572  169.8044 C.ar    1  UNL1        0.0001
     13 C         140.0630  142.1068  169.9210 C.ar    1  UNL1        0.0000
     14 C         140.5802  142.7994  168.6951 C.ar    1  UNL1        0.0001
     15 C         140.4533  142.1424  167.3527 C.ar    1  UNL1        0.0037
     16 N         142.2310  137.6488  162.8390 N.pl3   1  UNL1       -0.2192
     17 H         142.4851  136.9425  163.4761 H       1  UNL1        0.2922
     18 CA        143.2710  138.2713  161.9553 C.3     1  UNL1        0.2087
     19 C         144.0440  139.4648  162.4327 C.ar    1  UNL1        0.0222
     20 C         144.6578  139.4624  163.8014 C.ar    1  UNL1       -0.0004
     21 C         145.4308  140.6559  164.2788 C.ar    1  UNL1       -0.0002
     22 C         145.5900  141.8519  163.3876 C.ar    1  UNL1       -0.0000
     23 C         144.9762  141.8544  162.0190 C.ar    1  UNL1       -0.0002
     24 C         144.2031  140.6608  161.5415 C.ar    1  UNL1       -0.0004
     25 O         142.4529  137.6918  159.5584 O.3     1  UNL1       -0.3780
     26 C         143.5379  137.7003  160.5941 C.3     1  UNL1        0.1886
     27 H         142.7889  137.2910  158.7415 H       1  UNL1        0.2106
@<TRIPOS>BOND
     1    25    26    1
     2    18    26    1
     3    18    16    1
     4    16     1    1
     5     1     2    2
     6     2     3    1
     7     3     4    2
     8     4     5    1
     9     5     6    2
    10     6     7    1
    11     7    10    1
    12    10    11   ar
    13    11    12   ar
    14    12    13   ar
    15    13    14   ar
    16    14    15   ar
    17     7     8    2
    18     8     9    1
    19    18    19    1
    20    19    20   ar
    21    20    21   ar
    22    21    22   ar
    23    22    23   ar
    24    23    24   ar
    25     9     1    1
    26    24    19   ar
    27     9     5    1
    28    15    10   ar
    29    25    27    1
    30    16    17    1
@<TRIPOS>MOLECULE
*****
 27 30 0 0 0
SMALL
GASTEIGER

@<TRIPOS>ATOM
      1 C         137.8443  141.6526  163.7675 C.2     1  UNL1        0.3179
      2 N         137.3548  142.7745  162.9006 N.2     1  UNL1        0.0095
      3 C         137.8244  144.1766  163.1525 C.2     1  UNL1        0.4717
      4 N         138.7834  144.4568  164.2713 N.2     1  UNL1        0.0158
      5 C         139.2730  143.3349  165.1382 C.2     1  UNL1        0.3712
      6 N         140.2135  143.3059  166.3063 N.2     1  UNL1       -0.0378
      7 C         140.3252  141.8858  166.7764 C.2     1  UNL1        0.1900
      8 C         139.4537  141.0371  165.8988 C.2     1  UNL1        0.0447
      9 C         138.8034  141.9327  164.8863 C.3     1  UNL1        0.2425
     10 C         141.1616  141.3998  167.9229 C.ar    1  UNL1        0.0427
     11 C         140.7944  140.1315  168.6344 C.ar    1  UNL1        0.0037
     12 C         141.6307  139.6455  169.7808 C.ar    1  UNL1        0.0001
     13 C         142.8343  140.4280  170.2157 C.ar    1  UNL1        0.0000
     14 C         143.2016  141.6964  169.5042 C.ar    1  UNL1        0.0001
     15 C         142.3652  142.1823  168.3578 C.ar    1  UNL1        0.0037
     16 N         137.3748  140.2503  163.5156 N.pl3   1  UNL1       -0.2192
     17 H         136.5190  139.9426  163.8927 H       1  UNL1        0.2922
     18 CA        138.2092  139.3171  162.6893 C.3     1  UNL1        0.2087
     19 C         139.5571  138.8806  163.1818 C.ar    1  UNL1        0.0222
     20 C         139.6688  137.7396  164.1492 C.ar    1  UNL1       -0.0004
     21 C         141.0167  137.3031  164.6417 C.ar    1  UNL1       -0.0002
     22 C         142.2529  138.0076  164.1669 C.ar    1  UNL1       -0.0000
     23 C         142.1413  139.1485  163.1996 C.ar    1  UNL1       -0.0002
     24 C         140.7933  139.5851  162.7071 C.ar    1  UNL1       -0.0004
     25 O         136.6590  139.6072  160.6246 O.3     1  UNL1       -0.3780
     26 C         137.6956  138.8203  161.3704 C.3     1  UNL1        0.1886
     27 H         136.4389  139.1501  159.7979 H       1  UNL1        0.2106
@<TRIPOS>BOND
     1    25    26    1
     2    18    26    1
     3    18    16    1
     4    16     1    1
     5     1     2    2
     6     2     3    1
     7     3     4    2
     8     4     5    1
     9     5     6    2
    10     6     7    1
    11     7    10    1
    12    10    11   ar
    13    11    12   ar
    14    12    13   ar
    15    13    14   ar
    16    14    15   ar
    17     7     8    2
    18     8     9    1
    19    18    19    1
    20    19    20   ar
    21    20    21   ar
    22    21    22   ar
    23    22    23   ar
    24    23    24   ar
    25     9     1    1
    26    24    19   ar
    27     9     5    1
    28    15    10   ar
    29    25    27    1
    30    16    17    1
@<TRIPOS>MOLECULE
*****
 27 30 0 0 0
SMALL
GASTEIGER

@<TRIPOS>ATOM
      1 C         139.3385  139.2620  162.9580 C.2     1  UNL1        0.3179
      2 N         140.0016  138.1915  162.1430 N.2     1  UNL1        0.0095
      3 C         141.1393  137.4043  162.7226 C.2     1  UNL1        0.4717
      4 N         141.6138  137.6876  164.1171 N.2     1  UNL1        0.0158
      5 C         140.9506  138.7581  164.9320 C.2     1  UNL1        0.3712
      6 N         141.1985  139.2582  166.3243 N.2     1  UNL1       -0.0378
      7 C         140.2141  140.3545  166.6052 C.2     1  UNL1        0.1900
      8 C         139.3577  140.5320  165.3866 C.2     1  UNL1        0.0447
      9 C         139.8130  139.5453  164.3525 C.3     1  UNL1        0.2425
     10 C         140.1051  141.1362  167.8809 C.ar    1  UNL1        0.0427
     11 C         139.5185  140.4968  169.1044 C.ar    1  UNL1        0.0037
     12 C         139.4096  141.2785  170.3800 C.ar    1  UNL1        0.0001
     13 C         139.8873  142.6994  170.4321 C.ar    1  UNL1        0.0000
     14 C         140.4740  143.3387  169.2085 C.ar    1  UNL1        0.0001
     15 C         140.5829  142.5571  167.9329 C.ar    1  UNL1        0.0037
     16 N         138.2007  140.0494  162.3784 N.pl3   1  UNL1       -0.2192
     17 H         137.3001  139.6541  162.3355 H       1  UNL1        0.2922
     18 CA        138.4354  141.4388  161.8643 C.3     1  UNL1        0.2087
     19 C         138.6777  142.5636  162.8266 C.ar    1  UNL1        0.0222
     20 C         137.5533  143.0813  163.6738 C.ar    1  UNL1       -0.0004
     21 C         137.7957  144.2061  164.6361 C.ar    1  UNL1       -0.0002
     22 C         139.1625  144.8133  164.7512 C.ar    1  UNL1       -0.0000
     23 C         140.2868  144.2957  163.9039 C.ar    1  UNL1       -0.0002
     24 C         140.0445  143.1709  162.9416 C.ar    1  UNL1       -0.0004
     25 O         138.3698  143.1133  159.8788 O.3     1  UNL1       -0.3780
     26 C         138.4276  141.7035  160.3878 C.3     1  UNL1        0.1886
     27 H         138.3722  143.1072  158.9089 H       1  UNL1        0.2106
@<TRIPOS>BOND
     1    25    26    1
     2    18    26    1
     3    18    16    1
     4    16     1    1
     5     1     2    2
     6     2     3    1
     7     3     4    2
     8     4     5    1
     9     5     6    2
    10     6     7    1
    11     7    10    1
    12    10    11   ar
    13    11    12   ar
    14    12    13   ar
    15    13    14   ar
    16    14    15   ar
    17     7     8    2
    18     8     9    1
    19    18    19    1
    20    19    20   ar
    21    20    21   ar
    22    21    22   ar
    23    22    23   ar
    24    23    24   ar
    25     9     1    1
    26    24    19   ar
    27     9     5    1
    28    15    10   ar
    29    25    27    1
    30    16    17    1
@<TRIPOS>MOLECULE
*****
 27 30 0 0 0
SMALL
GASTEIGER

@<TRIPOS>ATOM
      1 C         142.8100  139.1287  163.0711 C.2     1  UNL1        0.3179
      2 N         143.6192  139.2575  161.8147 N.2     1  UNL1        0.0095
      3 C         144.5237  140.4385  161.6230 C.2     1  UNL1        0.4717
      4 N         144.6191  141.4908  162.6877 N.2     1  UNL1        0.0158
      5 C         143.8100  141.3620  163.9441 C.2     1  UNL1        0.3712
      6 N         143.6976  142.2340  165.1594 N.2     1  UNL1       -0.0378
      7 C         142.7236  141.5918  166.1022 C.2     1  UNL1        0.1900
      8 C         142.2340  140.3230  165.4697 C.2     1  UNL1        0.0447
      9 C         142.9055  140.1809  164.1358 C.3     1  UNL1        0.2425
     10 C         142.3115  142.1250  167.4424 C.ar    1  UNL1        0.0427
     11 C         140.8945  142.5593  167.6734 C.ar    1  UNL1        0.0037
     12 C         140.4825  143.0925  169.0135 C.ar    1  UNL1        0.0001
     13 C         141.4875  143.1914  170.1226 C.ar    1  UNL1        0.0000
     14 C         142.9045  142.7571  169.8917 C.ar    1  UNL1        0.0001
     15 C         143.3165  142.2239  168.5515 C.ar    1  UNL1        0.0037
     16 N         141.9054  137.9475  163.2629 N.pl3   1  UNL1       -0.2192
     17 H         142.2829  137.0744  163.5165 H       1  UNL1        0.2922
     18 CA        140.4256  138.0968  163.0682 C.3     1  UNL1        0.2087
     19 C         139.5340  138.3360  164.2505 C.ar    1  UNL1        0.0222
     20 C         139.0826  137.1815  165.0952 C.ar    1  UNL1       -0.0004
     21 C         138.1910  137.4207  166.2775 C.ar    1  UNL1       -0.0002
     22 C         137.7507  138.8143  166.6151 C.ar    1  UNL1       -0.0000
     23 C         138.2021  139.9688  165.7705 C.ar    1  UNL1       -0.0002
     24 C         139.0938  139.7296  164.5881 C.ar    1  UNL1       -0.0004
     25 O         138.3937  137.6402  161.5149 O.3     1  UNL1       -0.3780
     26 C         139.8374  138.0069  161.6913 C.3     1  UNL1        0.1886
     27 H         138.1766  137.6269  160.5696 H       1  UNL1        0.2106
@<TRIPOS>BOND
     1    25    26    1
     2    18    26    1
     3    18    16    1
     4    16     1    1
     5     1     2    2
     6     2     3    1
     7     3     4    2
     8     4     5    1
     9     5     6    2
    10     6     7    1
    11     7    10    1
    12    10    11   ar
    13    11    12   ar
    14    12    13   ar
    15    13    14   ar
    16    14    15   ar
    17     7     8    2
    18     8     9    1
    19    18    19    1
    20    19    20   ar
    21    20    21   ar
    22    21    22   ar
    23    22    23   ar
    24    23    24   ar
    25     9     1    1
    26    24    19   ar
    27     9     5    1
    28    15    10   ar
    29    25    27    1
    30    16    17    1
@<TRIPOS>MOLECULE
*****
 27 30 0 0 0
SMALL
GASTEIGER

@<TRIPOS>ATOM
      1 C         142.3047  138.8299  163.6565 C.2     1  UNL1        0.3179
      2 N         141.7719  137.8744  162.6303 N.2     1  UNL1        0.0095
      3 C         140.3559  137.3882  162.7221 C.2     1  UNL1        0.4717
      4 N         139.4727  137.8574  163.8400 N.2     1  UNL1        0.0158
      5 C         140.0056  138.8129  164.8663 C.2     1  UNL1        0.3712
      6 N         139.3757  139.4449  166.0720 N.2     1  UNL1       -0.0378
      7 C         140.4024  140.3218  166.7254 C.2     1  UNL1        0.1900
      8 C         141.6669  140.2317  165.9235 C.2     1  UNL1        0.0447
      9 C         141.4216  139.2991  164.7745 C.3     1  UNL1        0.2425
     10 C         140.2001  141.1443  167.9634 C.ar    1  UNL1        0.0427
     11 C         139.5429  140.5379  169.1677 C.ar    1  UNL1        0.0037
     12 C         139.3406  141.3605  170.4056 C.ar    1  UNL1        0.0001
     13 C         139.7957  142.7894  170.4392 C.ar    1  UNL1        0.0000
     14 C         140.4529  143.3958  169.2350 C.ar    1  UNL1        0.0001
     15 C         140.6552  142.5732  167.9971 C.ar    1  UNL1        0.0037
     16 N         143.7208  139.3162  163.5648 N.pl3   1  UNL1       -0.2192
     17 H         144.4272  138.8768  164.0912 H       1  UNL1        0.2922
     18 CA        144.0605  140.4719  162.6709 C.3     1  UNL1        0.2087
     19 C         144.0241  141.8717  163.2084 C.ar    1  UNL1        0.0222
     20 C         144.4917  142.1508  164.6062 C.ar    1  UNL1       -0.0004
     21 C         144.4553  143.5507  165.1437 C.ar    1  UNL1       -0.0002
     22 C         143.9515  144.6715  164.2836 C.ar    1  UNL1       -0.0000
     23 C         143.4840  144.3925  162.8859 C.ar    1  UNL1       -0.0002
     24 C         143.5203  142.9926  162.3483 C.ar    1  UNL1       -0.0004
     25 O         144.4530  138.8295  160.6964 O.3     1  UNL1       -0.3780
     26 C         144.4365  140.2276  161.2394 C.3     1  UNL1        0.1886
     27 H         144.7155  138.8483  159.7628 H       1  UNL1        0.2106
@<TRIPOS>BOND
     1    25    26    1
     2    18    26    1
     3    18    16    1
     4    16     1    1
     5     1     2    2
     6     2     3    1
     7     3     4    2
     8     4     5    1
     9     5     6    2
    10     6     7    1
    11     7    10    1
    12    10    11   ar
    13    11    12   ar
    14    12    13   ar
    15    13    14   ar
    16    14    15   ar
    17     7     8    2
    18     8     9    1
    19    18    19    1
    20    19    20   ar
    21    20    21   ar
    22    21    22   ar
    23    22    23   ar
    24    23    24   ar
    25     9     1    1
    26    24    19   ar
    27     9     5    1
    28    15    10   ar
    29    25    27    1
    30    16    17    1
@<TRIPOS>MOLECULE
*****
 27 30 0 0 0
SMALL
GASTEIGER

@<TRIPOS>ATOM
      1 C         141.7267  144.7331  162.4195 C.2     1  UNL1        0.3179
      2 N         140.7681  145.5676  161.6230 N.2     1  UNL1        0.0095
      3 C         139.3648  145.7706  162.1124 C.2     1  UNL1        0.4717
      4 N         138.9202  145.1390  163.3983 N.2     1  UNL1        0.0158
      5 C         139.8789  144.3045  164.1948 C.2     1  UNL1        0.3712
      6 N         139.7275  143.5623  165.4894 N.2     1  UNL1       -0.0378
      7 C         141.0373  142.9005  165.8002 C.2     1  UNL1        0.1900
      8 C         141.9982  143.2338  164.6976 C.2     1  UNL1        0.0447
      9 C         141.2821  144.1016  163.7054 C.3     1  UNL1        0.2425
     10 C         141.3341  142.0540  167.0025 C.ar    1  UNL1        0.0427
     11 C         142.3305  140.9370  166.9058 C.ar    1  UNL1        0.0037
     12 C         142.6272  140.0906  168.1081 C.ar    1  UNL1        0.0001
     13 C         141.9277  140.3613  169.4071 C.ar    1  UNL1        0.0000
     14 C         140.9313  141.4784  169.5038 C.ar    1  UNL1        0.0001
     15 C         140.6346  142.3248  168.3015 C.ar    1  UNL1        0.0037
     16 N         143.1301  144.5301  161.9302 N.pl3   1  UNL1       -0.2192
     17 H         143.7885  145.2580  162.0073 H       1  UNL1        0.2922
     18 CA        143.5303  143.2180  161.3233 C.3     1  UNL1        0.2087
     19 C         144.0303  142.1079  162.1994 C.ar    1  UNL1        0.0222
     20 C         143.3591  140.7668  162.1672 C.ar    1  UNL1       -0.0004
     21 C         143.8591  139.6566  163.0433 C.ar    1  UNL1       -0.0002
     22 C         145.0303  139.8875  163.9516 C.ar    1  UNL1       -0.0000
     23 C         145.7015  141.2286  163.9838 C.ar    1  UNL1       -0.0002
     24 C         145.2015  142.3388  163.1077 C.ar    1  UNL1       -0.0004
     25 O         142.8786  144.1064  158.9704 O.3     1  UNL1       -0.3780
     26 C         143.4306  143.0161  159.8402 C.3     1  UNL1        0.1886
     27 H         142.8836  143.8155  158.0450 H       1  UNL1        0.2106
@<TRIPOS>BOND
     1    25    26    1
     2    18    26    1
     3    18    16    1
     4    16     1    1
     5     1     2    2
     6     2     3    1
     7     3     4    2
     8     4     5    1
     9     5     6    2
    10     6     7    1
    11     7    10    1
    12    10    11   ar
    13    11    12   ar
    14    12    13   ar
    15    13    14   ar
    16    14    15   ar
    17     7     8    2
    18     8     9    1
    19    18    19    1
    20    19    20   ar
    21    20    21   ar
    22    21    22   ar
    23    22    23   ar
    24    23    24   ar
    25     9     1    1
    26    24    19   ar
    27     9     5    1
    28    15    10   ar
    29    25    27    1
    30    16    17    1
@<TRIPOS>MOLECULE
*****
 27 30 0 0 0
SMALL
GASTEIGER

@<TRIPOS>ATOM
      1 C         143.9967  139.8885  163.4091 C.2     1  UNL1        0.3179
      2 N         144.8490  140.7075  162.4858 N.2     1  UNL1        0.0095
      3 C         145.2598  142.0958  162.8780 C.2     1  UNL1        0.4717
      4 N         144.8182  142.6651  164.1937 N.2     1  UNL1        0.0158
      5 C         143.9659  141.8461  165.1171 C.2     1  UNL1        0.3712
      6 N         143.3823  142.1379  166.4677 N.2     1  UNL1       -0.0378
      7 C         142.6109  140.9300  166.9102 C.2     1  UNL1        0.1900
      8 C         142.7176  139.8916  165.8330 C.2     1  UNL1        0.0447
      9 C         143.5551  140.4578  164.7248 C.3     1  UNL1        0.2425
     10 C         141.8638  140.7858  168.2030 C.ar    1  UNL1        0.0427
     11 C         140.3871  140.5227  168.1905 C.ar    1  UNL1        0.0037
     12 C         139.6401  140.3785  169.4833 C.ar    1  UNL1        0.0001
     13 C         140.3698  140.4975  170.7884 C.ar    1  UNL1        0.0000
     14 C         141.8464  140.7607  170.8009 C.ar    1  UNL1        0.0001
     15 C         142.5934  140.9049  169.5081 C.ar    1  UNL1        0.0037
     16 N         143.5858  138.5002  163.0169 N.pl3   1  UNL1       -0.2192
     17 H         144.2064  137.7474  163.1490 H       1  UNL1        0.2922
     18 CA        142.2296  138.2589  162.4234 C.3     1  UNL1        0.2087
     19 C         140.9987  138.4733  163.2534 C.ar    1  UNL1        0.0222
     20 C         140.2119  139.7428  163.1141 C.ar    1  UNL1       -0.0004
     21 C         138.9810  139.9572  163.9442 C.ar    1  UNL1       -0.0002
     22 C         138.5370  138.9021  164.9135 C.ar    1  UNL1       -0.0000
     23 C         139.3237  137.6327  165.0529 C.ar    1  UNL1       -0.0002
     24 C         140.5546  137.4182  164.2228 C.ar    1  UNL1       -0.0004
     25 O         143.1969  136.9880  160.3742 O.3     1  UNL1       -0.3780
     26 C         142.1042  137.8032  160.9998 C.3     1  UNL1        0.1886
     27 H         142.9596  136.7784  159.4573 H       1  UNL1        0.2106
@<TRIPOS>BOND
     1    25    26    1
     2    18    26    1
     3    18    16    1
     4    16     1    1
     5     1     2    2
     6     2     3    1
     7     3     4    2
     8     4     5    1
     9     5     6    2
    10     6     7    1
    11     7    10    1
    12    10    11   ar
    13    11    12   ar
    14    12    13   ar
    15    13    14   ar
    16    14    15   ar
    17     7     8    2
    18     8     9    1
    19    18    19    1
    20    19    20   ar
    21    20    21   ar
    22    21    22   ar
    23    22    23   ar
    24    23    24   ar
    25     9     1    1
    26    24    19   ar
    27     9     5    1
    28    15    10   ar
    29    25    27    1
    30    16    17    1
