@<TRIPOS>MOLECULE
*****
 41 45 0 0 0
SMALL
GASTEIGER

@<TRIPOS>ATOM
      1 C         141.8791  138.9822  161.8754 C.3     1  UNL1        0.0758
      2 C         143.2457  139.2009  161.2969 C.3     1  UNL1        0.0370
      3 C         143.4657  139.0621  159.8196 C.3     1  UNL1        0.0741
      4 N         142.3192  138.7046  158.9209 N.3     1  UNL1       -0.2688
      5 C         140.9526  138.4858  159.4994 C.3     1  UNL1        0.0741
      6 C         140.7326  138.6246  160.9767 C.3     1  UNL1        0.0370
      7 O         141.3169  141.6798  163.0614 O.2     1  UNL1       -0.2528
      8 C         141.3779  140.4698  163.9457 C.2     1  UNL1        0.3012
      9 N         141.6591  139.1210  163.3527 N.am    1  UNL1       -0.2905
     10 N         141.1579  140.6086  165.4230 N.am    1  UNL1       -0.2805
     11 H         141.6991  138.3268  163.9331 H       1  UNL1        0.1509
     12 H         141.1980  139.8144  166.0034 H       1  UNL1        0.1516
     13 C         140.8768  141.9574  166.0159 C.3     1  UNL1        0.1526
     14 C         141.3970  142.2999  167.3804 C.ar    1  UNL1        0.0027
     15 C         142.8199  141.9901  167.7403 C.ar    1  UNL1       -0.0023
     16 C         143.3401  142.3327  169.1048 C.ar    1  UNL1       -0.0003
     17 C         142.4374  142.9851  170.1096 C.ar    1  UNL1       -0.0000
     18 C         141.0146  143.2949  169.7498 C.ar    1  UNL1       -0.0003
     19 C         140.4943  142.9524  168.3852 C.ar    1  UNL1       -0.0023
     20 C         140.0754  142.9636  165.2443 C.ar    1  UNL1        0.1395
     21 N         138.5920  142.9283  165.0247 N.ar    1  UNL1       -0.2275
     22 C         138.2166  144.1247  164.2015 C.ar    1  UNL1        0.1187
     23 C         139.4680  144.8995  163.9124 C.ar    1  UNL1        0.0943
     24 N         140.6168  144.1820  164.5569 N.ar    1  UNL1       -0.3380
     25 H         141.5605  144.4615  164.5329 H       1  UNL1        0.1672
     26 C         142.5392  138.5658  157.4436 C.3     1  UNL1        0.1007
     27 C         143.0205  137.2634  156.8761 C.ar    1  UNL1        0.0129
     28 C         143.6255  137.0632  155.5182 C.ar    1  UNL1        0.0176
     29 C         143.9601  135.6086  155.3697 C.ar    1  UNL1        0.0799
     30 N         143.5620  134.9097  156.6359 N.ar    1  UNL1       -0.3038
     31 C         142.9812  135.9324  157.5669 C.ar    1  UNL1        0.0772
     32 C         143.7173  133.4453  156.9210 C.ar    1  UNL1        0.0640
     33 C         144.8532  132.9636  157.7739 C.ar    1  UNL1        0.0175
     34 C         145.0085  131.4991  158.0589 C.ar    1  UNL1        0.0053
     35 C         144.0279  130.5164  157.4911 C.ar    1  UNL1        0.0715
     36 C         142.8919  130.9981  156.6382 C.ar    1  UNL1        0.0053
     37 C         142.7366  132.4625  156.3531 C.ar    1  UNL1        0.0175
     38 C         144.1832  129.0520  157.7762 C.3     1  UNL1        0.4186
     39 F         144.3385  127.5875  158.0614 F       1  UNL1       -0.1659
     40 F         144.3851  128.7886  156.3134 F       1  UNL1       -0.1659
     41 F         143.9814  129.3153  159.2391 F       1  UNL1       -0.1659
@<TRIPOS>BOND
     1     7     8    2
     2     8     9   am
     3     9     1    1
     4     1     2    1
     5     2     3    1
     6     3     4    1
     7     4    26    1
     8    26    27    1
     9    27    28   ar
    10    28    29   ar
    11    29    30   ar
    12    30    32    1
    13    32    33   ar
    14    33    34   ar
    15    34    35   ar
    16    35    38    1
    17    38    39    1
    18    38    40    1
    19    38    41    1
    20    35    36   ar
    21    36    37   ar
    22    30    31   ar
    23     4     5    1
    24     5     6    1
    25     8    10   am
    26    10    13    1
    27    13    14    1
    28    14    15   ar
    29    15    16   ar
    30    16    17   ar
    31    17    18   ar
    32    18    19   ar
    33    13    20    1
    34    20    21   ar
    35    21    22   ar
    36    22    23   ar
    37    23    24   ar
    38     6     1    1
    39    19    14   ar
    40    24    20   ar
    41    31    27   ar
    42    37    32   ar
    43     9    11    1
    44    10    12    1
    45    24    25    1
@<TRIPOS>MOLECULE
*****
 41 45 0 0 0
SMALL
GASTEIGER

@<TRIPOS>ATOM
      1 C         138.6752  142.7426  158.0677 C.3     1  UNL1        0.0758
      2 C         138.5914  142.3839  159.5217 C.3     1  UNL1        0.0370
      3 C         139.8443  142.2613  160.3374 C.3     1  UNL1        0.0741
      4 N         141.1809  142.4974  159.6989 N.3     1  UNL1       -0.2688
      5 C         141.2647  142.8561  158.2449 C.3     1  UNL1        0.0741
      6 C         140.0119  142.9787  157.4293 C.3     1  UNL1        0.0370
      7 O         137.3282  140.2803  157.0080 O.2     1  UNL1       -0.2528
      8 C         136.7488  141.6341  156.7222 C.2     1  UNL1        0.3012
      9 N         137.4223  142.8652  157.2520 N.am    1  UNL1       -0.2905
     10 N         135.4959  141.7567  155.9065 N.am    1  UNL1       -0.2805
     11 H         137.0421  143.7537  157.0644 H       1  UNL1        0.1509
     12 H         135.1157  142.6452  155.7189 H       1  UNL1        0.1516
     13 C         134.8225  140.5256  155.3767 C.3     1  UNL1        0.1526
     14 C         133.4229  140.1942  155.8026 C.ar    1  UNL1        0.0027
     15 C         133.1316  138.8797  156.4640 C.ar    1  UNL1       -0.0023
     16 C         131.7321  138.5483  156.8899 C.ar    1  UNL1       -0.0003
     17 C         130.6238  139.5313  156.6545 C.ar    1  UNL1       -0.0000
     18 C         130.9151  140.8457  155.9932 C.ar    1  UNL1       -0.0003
     19 C         132.3147  141.1772  155.5672 C.ar    1  UNL1       -0.0023
     20 C         135.5485  139.6259  154.4209 C.ar    1  UNL1        0.1395
     21 N         135.7364  139.8674  152.9525 N.ar    1  UNL1       -0.2275
     22 C         136.5181  138.7175  152.3898 C.ar    1  UNL1        0.1187
     23 C         136.8134  137.7653  153.5106 C.ar    1  UNL1        0.0943
     24 N         136.2141  138.3267  154.7658 N.ar    1  UNL1       -0.3380
     25 H         136.2512  137.9147  155.6592 H       1  UNL1        0.1672
     26 C         142.4338  142.3748  160.5146 C.3     1  UNL1        0.1007
     27 C         142.4809  142.9341  161.9056 C.ar    1  UNL1        0.0129
     28 C         142.9181  144.3179  162.2852 C.ar    1  UNL1        0.0176
     29 C         142.8064  144.4469  163.7754 C.ar    1  UNL1        0.0799
     30 N         142.3002  143.1428  164.3170 N.ar    1  UNL1       -0.3038
     31 C         142.0990  142.2079  163.1614 C.ar    1  UNL1        0.0772
     32 C         142.0407  142.8288  165.7606 C.ar    1  UNL1        0.0640
     33 C         143.1752  142.4300  166.6570 C.ar    1  UNL1        0.0175
     34 C         142.9158  142.1160  168.1007 C.ar    1  UNL1        0.0053
     35 C         141.5218  142.2008  168.6478 C.ar    1  UNL1        0.0715
     36 C         140.3872  142.5996  167.7514 C.ar    1  UNL1        0.0053
     37 C         140.6467  142.9136  166.3078 C.ar    1  UNL1        0.0175
     38 C         141.2623  141.8868  170.0914 C.3     1  UNL1        0.4186
     39 F         141.0030  141.5728  171.5351 F       1  UNL1       -0.1659
     40 F         139.7851  141.9199  169.8331 F       1  UNL1       -0.1659
     41 F         142.7396  141.8538  170.3498 F       1  UNL1       -0.1659
@<TRIPOS>BOND
     1     7     8    2
     2     8     9   am
     3     9     1    1
     4     1     2    1
     5     2     3    1
     6     3     4    1
     7     4    26    1
     8    26    27    1
     9    27    28   ar
    10    28    29   ar
    11    29    30   ar
    12    30    32    1
    13    32    33   ar
    14    33    34   ar
    15    34    35   ar
    16    35    38    1
    17    38    39    1
    18    38    40    1
    19    38    41    1
    20    35    36   ar
    21    36    37   ar
    22    30    31   ar
    23     4     5    1
    24     5     6    1
    25     8    10   am
    26    10    13    1
    27    13    14    1
    28    14    15   ar
    29    15    16   ar
    30    16    17   ar
    31    17    18   ar
    32    18    19   ar
    33    13    20    1
    34    20    21   ar
    35    21    22   ar
    36    22    23   ar
    37    23    24   ar
    38     6     1    1
    39    19    14   ar
    40    24    20   ar
    41    31    27   ar
    42    37    32   ar
    43     9    11    1
    44    10    12    1
    45    24    25    1
@<TRIPOS>MOLECULE
*****
 41 45 0 0 0
SMALL
GASTEIGER

@<TRIPOS>ATOM
      1 C         143.5633  140.5815  158.7246 C.3     1  UNL1        0.0758
      2 C         142.7765  141.7732  158.2657 C.3     1  UNL1        0.0370
      3 C         142.4103  142.8515  159.2420 C.3     1  UNL1        0.0741
      4 N         142.8310  142.7380  160.6773 N.3     1  UNL1       -0.2688
      5 C         143.6178  141.5463  161.1363 C.3     1  UNL1        0.0741
      6 C         143.9840  140.4681  160.1600 C.3     1  UNL1        0.0370
      7 O         141.5738  138.4453  158.0330 O.2     1  UNL1       -0.2528
      8 C         142.9348  138.4352  157.4025 C.2     1  UNL1        0.3012
      9 N         143.9295  139.5032  157.7483 N.am    1  UNL1       -0.2905
     10 N         143.3010  137.3569  156.4261 N.am    1  UNL1       -0.2805
     11 H         144.8228  139.4966  157.3344 H       1  UNL1        0.1509
     12 H         144.1943  137.3502  156.0123 H       1  UNL1        0.1516
     13 C         142.3062  136.2888  156.0803 C.3     1  UNL1        0.1526
     14 C         142.6195  134.8505  156.3685 C.ar    1  UNL1        0.0027
     15 C         143.6754  134.4999  157.3747 C.ar    1  UNL1       -0.0023
     16 C         143.9887  133.0616  157.6629 C.ar    1  UNL1       -0.0003
     17 C         143.2462  131.9738  156.9450 C.ar    1  UNL1       -0.0000
     18 C         142.1904  132.3243  155.9389 C.ar    1  UNL1       -0.0003
     19 C         141.8770  133.7627  155.6506 C.ar    1  UNL1       -0.0023
     20 C         140.9982  136.6590  155.4464 C.ar    1  UNL1        0.1395
     21 N         140.7634  136.8981  153.9843 N.ar    1  UNL1       -0.2275
     22 C         139.3154  137.2420  153.7974 C.ar    1  UNL1        0.1187
     23 C         138.6552  137.2154  155.1441 C.ar    1  UNL1        0.0943
     24 N         139.6952  136.8551  156.1631 N.ar    1  UNL1       -0.3380
     25 H         139.5484  136.7635  157.1323 H       1  UNL1        0.1672
     26 C         142.4647  143.8163  161.6537 C.3     1  UNL1        0.1007
     27 C         141.4652  143.5391  162.7372 C.ar    1  UNL1        0.0129
     28 C         140.0352  143.9915  162.7543 C.ar    1  UNL1        0.0176
     29 C         139.4064  143.4929  164.0215 C.ar    1  UNL1        0.0799
     30 N         140.4478  142.7322  164.7877 N.ar    1  UNL1       -0.3038
     31 C         141.7202  142.7608  163.9939 C.ar    1  UNL1        0.0772
     32 C         140.2512  142.0608  166.1145 C.ar    1  UNL1        0.0640
     33 C         139.6661  140.6811  166.1776 C.ar    1  UNL1        0.0175
     34 C         139.4696  140.0098  167.5045 C.ar    1  UNL1        0.0053
     35 C         139.8581  140.7181  168.7683 C.ar    1  UNL1        0.0715
     36 C         140.4432  142.0978  168.7052 C.ar    1  UNL1        0.0053
     37 C         140.6398  142.7692  167.3784 C.ar    1  UNL1        0.0175
     38 C         139.6615  140.0467  170.0951 C.3     1  UNL1        0.4186
     39 F         139.4649  139.3754  171.4221 F       1  UNL1       -0.1659
     40 F         141.0621  139.5132  170.0327 F       1  UNL1       -0.1659
     41 F         138.2609  140.5802  170.1576 F       1  UNL1       -0.1659
@<TRIPOS>BOND
     1     7     8    2
     2     8     9   am
     3     9     1    1
     4     1     2    1
     5     2     3    1
     6     3     4    1
     7     4    26    1
     8    26    27    1
     9    27    28   ar
    10    28    29   ar
    11    29    30   ar
    12    30    32    1
    13    32    33   ar
    14    33    34   ar
    15    34    35   ar
    16    35    38    1
    17    38    39    1
    18    38    40    1
    19    38    41    1
    20    35    36   ar
    21    36    37   ar
    22    30    31   ar
    23     4     5    1
    24     5     6    1
    25     8    10   am
    26    10    13    1
    27    13    14    1
    28    14    15   ar
    29    15    16   ar
    30    16    17   ar
    31    17    18   ar
    32    18    19   ar
    33    13    20    1
    34    20    21   ar
    35    21    22   ar
    36    22    23   ar
    37    23    24   ar
    38     6     1    1
    39    19    14   ar
    40    24    20   ar
    41    31    27   ar
    42    37    32   ar
    43     9    11    1
    44    10    12    1
    45    24    25    1
@<TRIPOS>MOLECULE
*****
 41 45 0 0 0
SMALL
GASTEIGER

@<TRIPOS>ATOM
      1 C         140.7210  144.9547  159.8037 C.3     1  UNL1        0.0758
      2 C         141.8603  143.9972  159.6168 C.3     1  UNL1        0.0370
      3 C         142.8081  143.7292  160.7482 C.3     1  UNL1        0.0741
      4 N         142.6164  144.4188  162.0664 N.3     1  UNL1       -0.2688
      5 C         141.4771  145.3764  162.2533 C.3     1  UNL1        0.0741
      6 C         140.5294  145.6443  161.1220 C.3     1  UNL1        0.0370
      7 O         141.7250  146.2118  157.2715 O.2     1  UNL1       -0.2528
      8 C         140.2752  145.8512  157.4063 C.2     1  UNL1        0.3012
      9 N         139.7732  145.2227  158.6724 N.am    1  UNL1       -0.2905
     10 N         139.3274  146.1193  156.2749 N.am    1  UNL1       -0.2805
     11 H         138.8217  144.9861  158.7608 H       1  UNL1        0.1509
     12 H         138.3759  145.8826  156.3634 H       1  UNL1        0.1516
     13 C         139.8294  146.7478  155.0089 C.3     1  UNL1        0.1526
     14 C         139.5890  148.2053  154.7486 C.ar    1  UNL1        0.0027
     15 C         140.0779  148.8305  153.4757 C.ar    1  UNL1       -0.0023
     16 C         139.8375  150.2880  153.2154 C.ar    1  UNL1       -0.0003
     17 C         139.1083  151.1204  154.2280 C.ar    1  UNL1       -0.0000
     18 C         138.6194  150.4953  155.5009 C.ar    1  UNL1       -0.0003
     19 C         138.8598  149.0377  155.7612 C.ar    1  UNL1       -0.0023
     20 C         140.5718  145.9187  154.0031 C.ar    1  UNL1        0.1395
     21 N         142.0620  145.7808  153.9018 N.ar    1  UNL1       -0.2275
     22 C         142.3655  144.8589  152.7581 C.ar    1  UNL1        0.1187
     23 C         141.0629  144.4271  152.1525 C.ar    1  UNL1        0.0943
     24 N         139.9543  145.0821  152.9220 N.ar    1  UNL1       -0.3380
     25 H         138.9906  144.9807  152.7480 H       1  UNL1        0.1672
     26 C         143.5642  144.1508  163.1978 C.3     1  UNL1        0.1007
     27 C         143.1399  143.2769  164.3406 C.ar    1  UNL1        0.0129
     28 C         143.9488  142.9750  165.5672 C.ar    1  UNL1        0.0176
     29 C         143.1410  142.0629  166.4422 C.ar    1  UNL1        0.0799
     30 N         141.8329  141.8010  165.7564 N.ar    1  UNL1       -0.3038
     31 C         141.8323  142.5513  164.4575 C.ar    1  UNL1        0.0772
     32 C         140.7208  140.9401  166.2778 C.ar    1  UNL1        0.0640
     33 C         140.4954  140.8198  167.7558 C.ar    1  UNL1        0.0175
     34 C         139.3832  139.9588  168.2773 C.ar    1  UNL1        0.0053
     35 C         138.4965  139.2182  167.3207 C.ar    1  UNL1        0.0715
     36 C         138.7219  139.3385  165.8427 C.ar    1  UNL1        0.0053
     37 C         139.8340  140.1994  165.3212 C.ar    1  UNL1        0.0175
     38 C         137.3844  138.3573  167.8422 C.3     1  UNL1        0.4186
     39 F         136.2722  137.4963  168.3636 F       1  UNL1       -0.1659
     40 F         137.3848  139.1340  169.1254 F       1  UNL1       -0.1659
     41 F         137.3840  137.5805  166.5589 F       1  UNL1       -0.1659
@<TRIPOS>BOND
     1     7     8    2
     2     8     9   am
     3     9     1    1
     4     1     2    1
     5     2     3    1
     6     3     4    1
     7     4    26    1
     8    26    27    1
     9    27    28   ar
    10    28    29   ar
    11    29    30   ar
    12    30    32    1
    13    32    33   ar
    14    33    34   ar
    15    34    35   ar
    16    35    38    1
    17    38    39    1
    18    38    40    1
    19    38    41    1
    20    35    36   ar
    21    36    37   ar
    22    30    31   ar
    23     4     5    1
    24     5     6    1
    25     8    10   am
    26    10    13    1
    27    13    14    1
    28    14    15   ar
    29    15    16   ar
    30    16    17   ar
    31    17    18   ar
    32    18    19   ar
    33    13    20    1
    34    20    21   ar
    35    21    22   ar
    36    22    23   ar
    37    23    24   ar
    38     6     1    1
    39    19    14   ar
    40    24    20   ar
    41    31    27   ar
    42    37    32   ar
    43     9    11    1
    44    10    12    1
    45    24    25    1
@<TRIPOS>MOLECULE
*****
 41 45 0 0 0
SMALL
GASTEIGER

@<TRIPOS>ATOM
      1 C         140.4182  138.3313  161.1632 C.3     1  UNL1        0.0758
      2 C         139.6888  138.5836  159.8770 C.3     1  UNL1        0.0370
      3 C         140.4228  138.5074  158.5712 C.3     1  UNL1        0.0741
      4 N         141.8863  138.1789  158.5515 N.3     1  UNL1       -0.2688
      5 C         142.6157  137.9266  159.8377 C.3     1  UNL1        0.0741
      6 C         141.8816  138.0028  161.1435 C.3     1  UNL1        0.0370
      7 O         141.0582  140.5147  163.1186 O.2     1  UNL1       -0.2528
      8 C         140.0041  139.4992  163.4468 C.2     1  UNL1        0.3012
      9 N         139.6841  138.4075  162.4692 N.am    1  UNL1       -0.2905
     10 N         139.2701  139.5754  164.7528 N.am    1  UNL1       -0.2805
     11 H         138.9923  137.7410  162.6846 H       1  UNL1        0.1509
     12 H         138.5783  138.9089  164.9682 H       1  UNL1        0.1516
     13 C         139.5901  140.6670  165.7304 C.3     1  UNL1        0.1526
     14 C         140.3262  140.3469  166.9975 C.ar    1  UNL1        0.0027
     15 C         139.6057  140.3818  168.3127 C.ar    1  UNL1       -0.0023
     16 C         140.3418  140.0617  169.5799 C.ar    1  UNL1       -0.0003
     17 C         141.7984  139.7067  169.5318 C.ar    1  UNL1       -0.0000
     18 C         142.5189  139.6718  168.2167 C.ar    1  UNL1       -0.0003
     19 C         141.7828  139.9919  166.9495 C.ar    1  UNL1       -0.0023
     20 C         139.1740  142.0788  165.4409 C.ar    1  UNL1        0.1395
     21 N         139.8666  143.3187  165.9234 N.ar    1  UNL1       -0.2275
     22 C         139.1129  144.5047  165.3988 C.ar    1  UNL1        0.1187
     23 C         137.9544  143.9978  164.5921 C.ar    1  UNL1        0.0943
     24 N         137.9921  142.4985  164.6181 N.ar    1  UNL1       -0.3380
     25 H         137.3534  141.8958  164.1732 H       1  UNL1        0.1672
     26 C         142.6203  138.1027  157.2455 C.3     1  UNL1        0.1007
     27 C         142.9377  136.7675  156.6404 C.ar    1  UNL1        0.0129
     28 C         143.1660  136.4915  155.1838 C.ar    1  UNL1        0.0176
     29 C         143.4520  135.0272  155.0287 C.ar    1  UNL1        0.0799
     30 N         143.4004  134.3981  156.3895 N.ar    1  UNL1       -0.3038
     31 C         143.0826  135.4737  157.3856 C.ar    1  UNL1        0.0772
     32 C         143.6269  132.9482  156.6998 C.ar    1  UNL1        0.0640
     33 C         142.7546  131.9018  156.0722 C.ar    1  UNL1        0.0175
     34 C         142.9810  130.4518  156.3824 C.ar    1  UNL1        0.0053
     35 C         144.0798  130.0482  157.3202 C.ar    1  UNL1        0.0715
     36 C         144.9523  131.0946  157.9479 C.ar    1  UNL1        0.0053
     37 C         144.7258  132.5446  157.6377 C.ar    1  UNL1        0.0175
     38 C         144.3063  128.5983  157.6305 C.3     1  UNL1        0.4186
     39 F         144.5328  127.1483  157.9408 F       1  UNL1       -0.1659
     40 F         144.1462  128.2624  156.1774 F       1  UNL1       -0.1659
     41 F         144.4664  128.9342  159.0837 F       1  UNL1       -0.1659
@<TRIPOS>BOND
     1     7     8    2
     2     8     9   am
     3     9     1    1
     4     1     2    1
     5     2     3    1
     6     3     4    1
     7     4    26    1
     8    26    27    1
     9    27    28   ar
    10    28    29   ar
    11    29    30   ar
    12    30    32    1
    13    32    33   ar
    14    33    34   ar
    15    34    35   ar
    16    35    38    1
    17    38    39    1
    18    38    40    1
    19    38    41    1
    20    35    36   ar
    21    36    37   ar
    22    30    31   ar
    23     4     5    1
    24     5     6    1
    25     8    10   am
    26    10    13    1
    27    13    14    1
    28    14    15   ar
    29    15    16   ar
    30    16    17   ar
    31    17    18   ar
    32    18    19   ar
    33    13    20    1
    34    20    21   ar
    35    21    22   ar
    36    22    23   ar
    37    23    24   ar
    38     6     1    1
    39    19    14   ar
    40    24    20   ar
    41    31    27   ar
    42    37    32   ar
    43     9    11    1
    44    10    12    1
    45    24    25    1
@<TRIPOS>MOLECULE
*****
 41 45 0 0 0
SMALL
GASTEIGER

@<TRIPOS>ATOM
      1 C         140.8528  138.0765  161.4455 C.3     1  UNL1        0.0758
      2 C         140.0196  138.4530  160.2564 C.3     1  UNL1        0.0370
      3 C         140.6410  138.5076  158.8923 C.3     1  UNL1        0.0741
      4 N         142.0956  138.1858  158.7173 N.3     1  UNL1       -0.2688
      5 C         142.9288  137.8093  159.9064 C.3     1  UNL1        0.0741
      6 C         142.3073  137.7547  161.2705 C.3     1  UNL1        0.0370
      7 O         141.1016  140.4197  163.3023 O.2     1  UNL1       -0.2528
      8 C         140.3558  139.1934  163.7380 C.2     1  UNL1        0.3012
      9 N         140.2313  138.0218  162.8097 N.am    1  UNL1       -0.2905
     10 N         139.7344  139.1387  165.1022 N.am    1  UNL1       -0.2805
     11 H         139.7418  137.2170  163.0957 H       1  UNL1        0.1509
     12 H         139.2448  138.3339  165.3882 H       1  UNL1        0.1516
     13 C         139.8588  140.3103  166.0305 C.3     1  UNL1        0.1526
     14 C         139.3363  141.6540  165.6166 C.ar    1  UNL1        0.0027
     15 C         140.0389  142.9019  166.0628 C.ar    1  UNL1       -0.0023
     16 C         139.5164  144.2456  165.6488 C.ar    1  UNL1       -0.0003
     17 C         138.2914  144.3415  164.7886 C.ar    1  UNL1       -0.0000
     18 C         137.5888  143.0936  164.3423 C.ar    1  UNL1       -0.0003
     19 C         138.1113  141.7498  164.7563 C.ar    1  UNL1       -0.0023
     20 C         140.5058  140.1382  167.3729 C.ar    1  UNL1        0.1395
     21 N         139.7920  139.9250  168.6748 N.ar    1  UNL1       -0.2275
     22 C         140.8252  139.8041  169.7555 C.ar    1  UNL1        0.1187
     23 C         142.1775  139.9426  169.1215 C.ar    1  UNL1        0.0943
     24 N         141.9801  140.1490  167.6490 N.ar    1  UNL1       -0.3380
     25 H         142.6930  140.2704  166.9810 H       1  UNL1        0.1672
     26 C         142.7170  138.2405  157.3531 C.3     1  UNL1        0.1007
     27 C         142.9034  136.9793  156.5628 C.ar    1  UNL1        0.0129
     28 C         142.7190  136.8317  155.0815 C.ar    1  UNL1        0.0176
     29 C         143.0085  135.4055  154.7182 C.ar    1  UNL1        0.0799
     30 N         143.3719  134.6716  155.9749 N.ar    1  UNL1       -0.3038
     31 C         143.3070  135.6443  157.1149 C.ar    1  UNL1        0.0772
     32 C         143.7363  133.2199  156.0742 C.ar    1  UNL1        0.0640
     33 C         144.3190  132.6782  157.3457 C.ar    1  UNL1        0.0175
     34 C         144.6834  131.2265  157.4450 C.ar    1  UNL1        0.0053
     35 C         144.4651  130.3166  156.2727 C.ar    1  UNL1        0.0715
     36 C         143.8824  130.8583  155.0011 C.ar    1  UNL1        0.0053
     37 C         143.5180  132.3100  154.9018 C.ar    1  UNL1        0.0175
     38 C         144.8295  128.8650  156.3720 C.3     1  UNL1        0.4186
     39 F         145.1939  127.4133  156.4711 F       1  UNL1       -0.1659
     40 F         144.2794  128.8222  157.7668 F       1  UNL1       -0.1659
     41 F         145.3797  128.9076  154.9771 F       1  UNL1       -0.1659
@<TRIPOS>BOND
     1     7     8    2
     2     8     9   am
     3     9     1    1
     4     1     2    1
     5     2     3    1
     6     3     4    1
     7     4    26    1
     8    26    27    1
     9    27    28   ar
    10    28    29   ar
    11    29    30   ar
    12    30    32    1
    13    32    33   ar
    14    33    34   ar
    15    34    35   ar
    16    35    38    1
    17    38    39    1
    18    38    40    1
    19    38    41    1
    20    35    36   ar
    21    36    37   ar
    22    30    31   ar
    23     4     5    1
    24     5     6    1
    25     8    10   am
    26    10    13    1
    27    13    14    1
    28    14    15   ar
    29    15    16   ar
    30    16    17   ar
    31    17    18   ar
    32    18    19   ar
    33    13    20    1
    34    20    21   ar
    35    21    22   ar
    36    22    23   ar
    37    23    24   ar
    38     6     1    1
    39    19    14   ar
    40    24    20   ar
    41    31    27   ar
    42    37    32   ar
    43     9    11    1
    44    10    12    1
    45    24    25    1
@<TRIPOS>MOLECULE
*****
 41 45 0 0 0
SMALL
GASTEIGER

@<TRIPOS>ATOM
      1 C         141.3711  138.7781  159.3054 C.3     1  UNL1        0.0758
      2 C         142.4895  138.2051  160.1244 C.3     1  UNL1        0.0370
      3 C         142.2056  137.6194  161.4758 C.3     1  UNL1        0.0741
      4 N         140.8033  137.6066  162.0082 N.3     1  UNL1       -0.2688
      5 C         139.6849  138.1795  161.1891 C.3     1  UNL1        0.0741
      6 C         139.9688  138.7653  159.8378 C.3     1  UNL1        0.0370
      7 O         142.9260  141.3332  159.0745 O.2     1  UNL1       -0.2528
      8 C         142.4324  140.6414  157.8385 C.2     1  UNL1        0.3012
      9 N         141.6549  139.3638  157.9539 N.am    1  UNL1       -0.2905
     10 N         142.7163  141.2272  156.4871 N.am    1  UNL1       -0.2805
     11 H         141.3310  138.9098  157.1427 H       1  UNL1        0.1509
     12 H         142.3923  140.7731  155.6758 H       1  UNL1        0.1516
     13 C         143.4937  142.5047  156.3716 C.3     1  UNL1        0.1526
     14 C         144.9427  142.4686  155.9856 C.ar    1  UNL1        0.0027
     15 C         146.0015  142.4428  157.0478 C.ar    1  UNL1       -0.0023
     16 C         147.4505  142.4067  156.6617 C.ar    1  UNL1       -0.0003
     17 C         147.8407  142.3963  155.2134 C.ar    1  UNL1       -0.0000
     18 C         146.7820  142.4220  154.1512 C.ar    1  UNL1       -0.0003
     19 C         145.3329  142.4582  154.5373 C.ar    1  UNL1       -0.0023
     20 C         142.8222  143.8184  156.6423 C.ar    1  UNL1        0.1395
     21 N         142.7126  144.4941  157.9770 N.ar    1  UNL1       -0.2275
     22 C         141.9650  145.7804  157.7854 C.ar    1  UNL1        0.1187
     23 C         141.6126  145.8996  156.3323 C.ar    1  UNL1        0.0943
     24 N         142.1423  144.6871  155.6258 N.ar    1  UNL1       -0.3380
     25 H         142.0585  144.4950  154.6639 H       1  UNL1        0.1672
     26 C         140.5194  137.0208  163.3596 C.3     1  UNL1        0.1007
     27 C         140.2313  137.9232  164.5227 C.ar    1  UNL1        0.0129
     28 C         138.8845  138.1685  165.1357 C.ar    1  UNL1        0.0176
     29 C         139.0602  139.1356  166.2688 C.ar    1  UNL1        0.0799
     30 N         140.5157  139.4879  166.3561 N.ar    1  UNL1       -0.3038
     31 C         141.2394  138.7386  165.2769 C.ar    1  UNL1        0.0772
     32 C         141.1380  140.4250  167.3483 C.ar    1  UNL1        0.0640
     33 C         142.4188  140.0500  168.0329 C.ar    1  UNL1        0.0175
     34 C         143.0412  140.9871  169.0251 C.ar    1  UNL1        0.0053
     35 C         142.3827  142.2991  169.3328 C.ar    1  UNL1        0.0715
     36 C         141.1018  142.6742  168.6482 C.ar    1  UNL1        0.0053
     37 C         140.4795  141.7371  167.6560 C.ar    1  UNL1        0.0175
     38 C         143.0050  143.2362  170.3250 C.3     1  UNL1        0.4186
     39 F         143.6273  144.1733  171.3173 F       1  UNL1       -0.1659
     40 F         144.2680  142.4274  170.2967 F       1  UNL1       -0.1659
     41 F         141.7421  144.0451  170.3533 F       1  UNL1       -0.1659
@<TRIPOS>BOND
     1     7     8    2
     2     8     9   am
     3     9     1    1
     4     1     2    1
     5     2     3    1
     6     3     4    1
     7     4    26    1
     8    26    27    1
     9    27    28   ar
    10    28    29   ar
    11    29    30   ar
    12    30    32    1
    13    32    33   ar
    14    33    34   ar
    15    34    35   ar
    16    35    38    1
    17    38    39    1
    18    38    40    1
    19    38    41    1
    20    35    36   ar
    21    36    37   ar
    22    30    31   ar
    23     4     5    1
    24     5     6    1
    25     8    10   am
    26    10    13    1
    27    13    14    1
    28    14    15   ar
    29    15    16   ar
    30    16    17   ar
    31    17    18   ar
    32    18    19   ar
    33    13    20    1
    34    20    21   ar
    35    21    22   ar
    36    22    23   ar
    37    23    24   ar
    38     6     1    1
    39    19    14   ar
    40    24    20   ar
    41    31    27   ar
    42    37    32   ar
    43     9    11    1
    44    10    12    1
    45    24    25    1
@<TRIPOS>MOLECULE
*****
 41 45 0 0 0
SMALL
GASTEIGER

@<TRIPOS>ATOM
      1 C         141.1697  143.8952  159.4934 C.3     1  UNL1        0.0758
      2 C         140.2113  142.8390  159.9579 C.3     1  UNL1        0.0370
      3 C         140.7259  141.5004  160.3977 C.3     1  UNL1        0.0741
      4 N         142.1988  141.2181  160.3730 N.3     1  UNL1       -0.2688
      5 C         143.1573  142.2743  159.9085 C.3     1  UNL1        0.0741
      6 C         142.6427  143.6128  159.4687 C.3     1  UNL1        0.0370
      7 O         140.2389  144.2903  156.6689 O.2     1  UNL1       -0.2528
      8 C         140.1898  145.4314  157.6414 C.2     1  UNL1        0.3012
      9 N         140.6552  145.2338  159.0536 N.am    1  UNL1       -0.2905
     10 N         139.6753  146.7700  157.2015 N.am    1  UNL1       -0.2805
     11 H         140.6230  145.9827  159.6918 H       1  UNL1        0.1509
     12 H         139.6430  147.5189  157.8398 H       1  UNL1        0.1516
     13 C         139.2099  146.9676  155.7894 C.3     1  UNL1        0.1526
     14 C         139.2598  148.3315  155.1671 C.ar    1  UNL1        0.0027
     15 C         139.9645  148.5335  153.8584 C.ar    1  UNL1       -0.0023
     16 C         140.0145  149.8974  153.2362 C.ar    1  UNL1       -0.0003
     17 C         139.3597  151.0594  153.9226 C.ar    1  UNL1       -0.0000
     18 C         138.6551  150.8574  155.2313 C.ar    1  UNL1       -0.0003
     19 C         138.6051  149.4934  155.8536 C.ar    1  UNL1       -0.0023
     20 C         138.6946  145.8012  154.9994 C.ar    1  UNL1        0.1395
     21 N         137.3208  145.2072  155.0984 N.ar    1  UNL1       -0.2275
     22 C         137.2397  144.0629  154.1319 C.ar    1  UNL1        0.1187
     23 C         138.5634  143.9498  153.4355 C.ar    1  UNL1        0.0943
     24 N         139.4626  145.0241  153.9716 N.ar    1  UNL1       -0.3380
     25 H         140.3933  145.1900  153.6971 H       1  UNL1        0.1672
     26 C         142.7134  139.8794  160.8128 C.3     1  UNL1        0.1007
     27 C         142.2651  139.2962  162.1200 C.ar    1  UNL1        0.0129
     28 C         141.8028  137.8869  162.3444 C.ar    1  UNL1        0.0176
     29 C         141.4524  137.7395  163.7954 C.ar    1  UNL1        0.0799
     30 N         141.6980  139.0577  164.4678 N.ar    1  UNL1       -0.3038
     31 C         142.2003  140.0198  163.4324 C.ar    1  UNL1        0.0772
     32 C         141.4797  139.3607  165.9206 C.ar    1  UNL1        0.0640
     33 C         142.6223  139.2616  166.8873 C.ar    1  UNL1        0.0175
     34 C         142.4040  139.5645  168.3401 C.ar    1  UNL1        0.0053
     35 C         141.0431  139.9665  168.8261 C.ar    1  UNL1        0.0715
     36 C         139.9005  140.0656  167.8594 C.ar    1  UNL1        0.0053
     37 C         140.1188  139.7627  166.4067 C.ar    1  UNL1        0.0175
     38 C         140.8248  140.2694  170.2789 C.3     1  UNL1        0.4186
     39 F         140.6066  140.5723  171.7317 F       1  UNL1       -0.1659
     40 F         139.3426  140.2966  170.0505 F       1  UNL1       -0.1659
     41 F         142.3071  140.2422  170.5074 F       1  UNL1       -0.1659
@<TRIPOS>BOND
     1     7     8    2
     2     8     9   am
     3     9     1    1
     4     1     2    1
     5     2     3    1
     6     3     4    1
     7     4    26    1
     8    26    27    1
     9    27    28   ar
    10    28    29   ar
    11    29    30   ar
    12    30    32    1
    13    32    33   ar
    14    33    34   ar
    15    34    35   ar
    16    35    38    1
    17    38    39    1
    18    38    40    1
    19    38    41    1
    20    35    36   ar
    21    36    37   ar
    22    30    31   ar
    23     4     5    1
    24     5     6    1
    25     8    10   am
    26    10    13    1
    27    13    14    1
    28    14    15   ar
    29    15    16   ar
    30    16    17   ar
    31    17    18   ar
    32    18    19   ar
    33    13    20    1
    34    20    21   ar
    35    21    22   ar
    36    22    23   ar
    37    23    24   ar
    38     6     1    1
    39    19    14   ar
    40    24    20   ar
    41    31    27   ar
    42    37    32   ar
    43     9    11    1
    44    10    12    1
    45    24    25    1
@<TRIPOS>MOLECULE
*****
 41 45 0 0 0
SMALL
GASTEIGER

@<TRIPOS>ATOM
      1 C         141.0853  143.7193  157.7892 C.3     1  UNL1        0.0758
      2 C         141.5765  145.0659  158.2312 C.3     1  UNL1        0.0370
      3 C         141.0784  145.6618  159.5145 C.3     1  UNL1        0.0741
      4 N         140.0892  144.9110  160.3558 N.3     1  UNL1       -0.2688
      5 C         139.5980  143.5644  159.9138 C.3     1  UNL1        0.0741
      6 C         140.0961  142.9686  158.6305 C.3     1  UNL1        0.0370
      7 O         143.4007  141.8120  157.8201 O.2     1  UNL1       -0.2528
      8 C         142.7411  142.1698  156.5214 C.2     1  UNL1        0.3012
      9 N         141.5834  143.1234  156.5059 N.am    1  UNL1       -0.2905
     10 N         143.2392  141.5739  155.2380 N.am    1  UNL1       -0.2805
     11 H         141.1505  143.3583  155.6534 H       1  UNL1        0.1509
     12 H         142.8062  141.8087  154.3856 H       1  UNL1        0.1516
     13 C         144.3968  140.6202  155.2535 C.3     1  UNL1        0.1526
     14 C         145.7843  141.1205  154.9807 C.ar    1  UNL1        0.0027
     15 C         146.3176  141.1256  153.5786 C.ar    1  UNL1       -0.0023
     16 C         147.7051  141.6259  153.3058 C.ar    1  UNL1       -0.0003
     17 C         148.5594  142.1211  154.4349 C.ar    1  UNL1       -0.0000
     18 C         148.0262  142.1160  155.8369 C.ar    1  UNL1       -0.0003
     19 C         146.6386  141.6157  156.1098 C.ar    1  UNL1       -0.0023
     20 C         144.1670  139.1662  155.5418 C.ar    1  UNL1        0.1395
     21 N         143.2905  138.6099  156.6245 N.ar    1  UNL1       -0.2275
     22 C         143.3551  137.1131  156.5499 C.ar    1  UNL1        0.1187
     23 C         144.2715  136.7444  155.4211 C.ar    1  UNL1        0.0943
     24 N         144.7733  138.0133  154.7981 N.ar    1  UNL1       -0.3380
     25 H         145.3920  138.0780  154.0350 H       1  UNL1        0.1672
     26 C         139.5911  145.5069  161.6391 C.3     1  UNL1        0.1007
     27 C         139.1519  144.6128  162.7605 C.ar    1  UNL1        0.0129
     28 C         137.7346  144.2660  163.1082 C.ar    1  UNL1        0.0176
     29 C         137.7596  143.3473  164.2937 C.ar    1  UNL1        0.0799
     30 N         139.1925  143.1262  164.6786 N.ar    1  UNL1       -0.3038
     31 C         140.0529  143.9084  163.7311 C.ar    1  UNL1        0.0772
     32 C         139.6793  142.2729  165.8121 C.ar    1  UNL1        0.0640
     33 C         139.3536  140.8091  165.8426 C.ar    1  UNL1        0.0175
     34 C         139.8405  139.9558  166.9760 C.ar    1  UNL1        0.0053
     35 C         140.6530  140.5663  168.0791 C.ar    1  UNL1        0.0715
     36 C         140.9788  142.0302  168.0487 C.ar    1  UNL1        0.0053
     37 C         140.4920  142.8835  166.9153 C.ar    1  UNL1        0.0175
     38 C         141.1399  139.7130  169.2126 C.3     1  UNL1        0.4186
     39 F         141.6268  138.8597  170.3461 F       1  UNL1       -0.1659
     40 F         139.9352  140.0974  170.0194 F       1  UNL1       -0.1659
     41 F         142.3447  139.3286  168.4058 F       1  UNL1       -0.1659
@<TRIPOS>BOND
     1     7     8    2
     2     8     9   am
     3     9     1    1
     4     1     2    1
     5     2     3    1
     6     3     4    1
     7     4    26    1
     8    26    27    1
     9    27    28   ar
    10    28    29   ar
    11    29    30   ar
    12    30    32    1
    13    32    33   ar
    14    33    34   ar
    15    34    35   ar
    16    35    38    1
    17    38    39    1
    18    38    40    1
    19    38    41    1
    20    35    36   ar
    21    36    37   ar
    22    30    31   ar
    23     4     5    1
    24     5     6    1
    25     8    10   am
    26    10    13    1
    27    13    14    1
    28    14    15   ar
    29    15    16   ar
    30    16    17   ar
    31    17    18   ar
    32    18    19   ar
    33    13    20    1
    34    20    21   ar
    35    21    22   ar
    36    22    23   ar
    37    23    24   ar
    38     6     1    1
    39    19    14   ar
    40    24    20   ar
    41    31    27   ar
    42    37    32   ar
    43     9    11    1
    44    10    12    1
    45    24    25    1
