@<TRIPOS>MOLECULE
*****
 25 26 0 0 0
SMALL
GASTEIGER

@<TRIPOS>ATOM
      1 N         140.7425  144.8362  160.3911 N.pl3   1  UNL1       -0.2619
      2 H         141.4822  145.1059  159.8000 H       1  UNL1        0.2588
      3 N         139.0089  146.5153  161.3530 N.pl3   1  UNL1       -0.1293
      4 C         140.2911  145.7495  161.4921 C.cat   1  UNL1        0.3840
      5 H         138.4636  146.4186  160.5390 H       1  UNL1        0.3062
      6 N         141.1219  145.8968  162.7323 N.pl3   1  UNL1       -0.2424
      7 H         141.7229  146.6701  162.8332 H       1  UNL1        0.2649
      8 C         141.0371  144.8660  163.8186 C.ar    1  UNL1        0.1168
      9 C         139.7632  144.6940  164.5916 C.ar    1  UNL1        0.0338
     10 C         139.6784  143.6632  165.6780 C.ar    1  UNL1        0.0087
     11 C         140.8676  142.8044  165.9914 C.ar    1  UNL1        0.0303
     12 I         140.7828  141.7735  167.0778 I       1  UNL1       -0.0425
     13 C         142.1415  142.9763  165.2185 C.ar    1  UNL1        0.0087
     14 C         142.2263  144.0071  164.1321 C.ar    1  UNL1        0.0338
     15 C         140.0670  143.5120  160.1907 C.3     1  UNL1        0.1778
     16 C         139.5613  142.7414  161.3740 C.3     1  UNL1        0.0901
     17 C         138.1174  142.8364  161.7695 C.3     1  UNL1        0.2090
     18 O         137.2981  141.5893  161.9224 O.3     1  UNL1       -0.4753
     19 C         137.8112  140.4522  162.7555 C.ar    1  UNL1        0.1387
     20 C         138.1621  139.1460  162.1070 C.ar    1  UNL1        0.0392
     21 C         138.6752  138.0091  162.9401 C.ar    1  UNL1        0.0327
     22 C         138.8374  138.1783  164.4216 C.ar    1  UNL1        0.1403
     23 F         139.3505  137.0413  165.2547 F       1  UNL1       -0.2042
     24 C         138.4865  139.4845  165.0701 C.ar    1  UNL1        0.0327
     25 C         137.9734  140.6215  164.2371 C.ar    1  UNL1        0.0392
@<TRIPOS>BOND
     1     3     4    2
     2     4     1    1
     3     1    15    1
     4    15    16    1
     5    16    17    1
     6    17    18    1
     7    18    19    1
     8    19    20   ar
     9    20    21   ar
    10    21    22   ar
    11    22    23    1
    12    22    24   ar
    13    24    25   ar
    14     4     6    1
    15     6     8    1
    16     8     9   ar
    17     9    10   ar
    18    10    11   ar
    19    11    12    1
    20    11    13   ar
    21    13    14   ar
    22    25    19   ar
    23    14     8   ar
    24     3     5    1
    25     1     2    1
    26     6     7    1
@<TRIPOS>MOLECULE
*****
 25 26 0 0 0
SMALL
GASTEIGER

@<TRIPOS>ATOM
      1 N         139.8506  145.3034  163.7663 N.pl3   1  UNL1       -0.2619
      2 H         139.6584  145.7815  164.6052 H       1  UNL1        0.2588
      3 N         139.1943  146.3971  161.5028 N.pl3   1  UNL1       -0.1293
      4 C         138.9091  145.4196  162.6043 C.cat   1  UNL1        0.3840
      5 H         139.9994  146.9623  161.5425 H       1  UNL1        0.3062
      6 N         137.6826  144.5584  162.5438 N.pl3   1  UNL1       -0.2424
      7 H         136.7901  144.9666  162.6221 H       1  UNL1        0.2649
      8 C         137.8157  143.0752  162.3639 C.ar    1  UNL1        0.1168
      9 C         138.1844  142.5123  161.0233 C.ar    1  UNL1        0.0338
     10 C         138.3176  141.0290  160.8435 C.ar    1  UNL1        0.0087
     11 C         138.0821  140.1087  162.0043 C.ar    1  UNL1        0.0303
     12 I         138.2153  138.6255  161.8246 I       1  UNL1       -0.0425
     13 C         137.7134  140.6716  163.3450 C.ar    1  UNL1        0.0087
     14 C         137.5803  142.1548  163.5248 C.ar    1  UNL1        0.0338
     15 C         141.0848  144.4589  163.6501 C.3     1  UNL1        0.1778
     16 C         141.1258  143.0997  164.2833 C.3     1  UNL1        0.0901
     17 C         140.9682  142.9591  165.7684 C.3     1  UNL1        0.2090
     18 O         141.3436  141.6737  166.4441 O.3     1  UNL1       -0.4753
     19 C         140.5323  140.4351  166.2035 C.ar    1  UNL1        0.1387
     20 C         139.2152  140.2546  166.8982 C.ar    1  UNL1        0.0392
     21 C         138.4040  139.0160  166.6576 C.ar    1  UNL1        0.0327
     22 C         138.9098  137.9581  165.7223 C.ar    1  UNL1        0.1403
     23 F         138.0985  136.7195  165.4817 F       1  UNL1       -0.2042
     24 C         140.2269  138.1386  165.0276 C.ar    1  UNL1        0.0327
     25 C         141.0381  139.3771  165.2682 C.ar    1  UNL1        0.0392
@<TRIPOS>BOND
     1     3     4    2
     2     4     1    1
     3     1    15    1
     4    15    16    1
     5    16    17    1
     6    17    18    1
     7    18    19    1
     8    19    20   ar
     9    20    21   ar
    10    21    22   ar
    11    22    23    1
    12    22    24   ar
    13    24    25   ar
    14     4     6    1
    15     6     8    1
    16     8     9   ar
    17     9    10   ar
    18    10    11   ar
    19    11    12    1
    20    11    13   ar
    21    13    14   ar
    22    25    19   ar
    23    14     8   ar
    24     3     5    1
    25     1     2    1
    26     6     7    1
@<TRIPOS>MOLECULE
*****
 25 26 0 0 0
SMALL
GASTEIGER

@<TRIPOS>ATOM
      1 N         138.0733  140.7141  161.2114 N.pl3   1  UNL1       -0.2619
      2 H         137.7206  140.7489  160.2929 H       1  UNL1        0.2588
      3 N         137.5830  143.1655  161.9188 N.pl3   1  UNL1       -0.1293
      4 C         137.5950  141.6996  162.2362 C.cat   1  UNL1        0.3840
      5 H         137.8890  143.4809  161.0378 H       1  UNL1        0.3062
      6 N         137.1286  141.2190  163.5785 N.pl3   1  UNL1       -0.2424
      7 H         136.1791  141.0016  163.7208 H       1  UNL1        0.2649
      8 C         138.1091  141.0697  164.7037 C.ar    1  UNL1        0.1168
      9 C         138.1509  139.7981  165.4983 C.ar    1  UNL1        0.0338
     10 C         139.1315  139.6488  166.6237 C.ar    1  UNL1        0.0087
     11 C         140.0702  140.7710  166.9543 C.ar    1  UNL1        0.0303
     12 I         141.0508  140.6217  168.0796 I       1  UNL1       -0.0425
     13 C         140.0284  142.0426  166.1597 C.ar    1  UNL1        0.0087
     14 C         139.0479  142.1919  165.0344 C.ar    1  UNL1        0.0338
     15 C         139.0888  139.6758  161.5860 C.3     1  UNL1        0.1778
     16 C         138.6458  138.2879  161.9431 C.3     1  UNL1        0.0901
     17 C         139.3304  137.5439  163.0512 C.3     1  UNL1        0.2090
     18 O         140.7086  136.9896  162.8429 O.3     1  UNL1       -0.4753
     19 C         141.9087  137.7877  163.2586 C.ar    1  UNL1        0.1387
     20 C         142.9692  138.1262  162.2533 C.ar    1  UNL1        0.0392
     21 C         144.1693  138.9243  162.6690 C.ar    1  UNL1        0.0327
     22 C         144.3088  139.3839  164.0901 C.ar    1  UNL1        0.1403
     23 F         145.5090  140.1820  164.5058 F       1  UNL1       -0.2042
     24 C         143.2483  139.0454  165.0954 C.ar    1  UNL1        0.0327
     25 C         142.0483  138.2473  164.6796 C.ar    1  UNL1        0.0392
@<TRIPOS>BOND
     1     3     4    2
     2     4     1    1
     3     1    15    1
     4    15    16    1
     5    16    17    1
     6    17    18    1
     7    18    19    1
     8    19    20   ar
     9    20    21   ar
    10    21    22   ar
    11    22    23    1
    12    22    24   ar
    13    24    25   ar
    14     4     6    1
    15     6     8    1
    16     8     9   ar
    17     9    10   ar
    18    10    11   ar
    19    11    12    1
    20    11    13   ar
    21    13    14   ar
    22    25    19   ar
    23    14     8   ar
    24     3     5    1
    25     1     2    1
    26     6     7    1
@<TRIPOS>MOLECULE
*****
 25 26 0 0 0
SMALL
GASTEIGER

@<TRIPOS>ATOM
      1 N         142.7489  141.0887  170.8843 N.pl3   1  UNL1       -0.2619
      2 H         143.3768  140.6105  171.4727 H       1  UNL1        0.2588
      3 N         144.5675  142.7865  170.1356 N.pl3   1  UNL1       -0.1293
      4 C         143.2648  142.0851  169.8886 C.cat   1  UNL1        0.3840
      5 H         145.0839  142.5929  170.9511 H       1  UNL1        0.3062
      6 N         142.4779  142.3801  168.6461 N.pl3   1  UNL1       -0.2424
      7 H         141.7843  143.0787  168.6570 H       1  UNL1        0.2649
      8 C         142.7478  141.6106  167.3872 C.ar    1  UNL1        0.1168
      9 C         142.7594  140.1109  167.4127 C.ar    1  UNL1        0.0338
     10 C         143.0294  139.3415  166.1536 C.ar    1  UNL1        0.0087
     11 C         143.2877  140.0718  164.8691 C.ar    1  UNL1        0.0303
     12 I         143.5576  139.3023  163.6101 I       1  UNL1       -0.0425
     13 C         143.2761  141.5715  164.8437 C.ar    1  UNL1        0.0087
     14 C         143.0062  142.3409  166.1026 C.ar    1  UNL1        0.0338
     15 C         141.2763  140.8210  170.9833 C.3     1  UNL1        0.1778
     16 C         140.6120  139.9078  169.9961 C.3     1  UNL1        0.0901
     17 C         139.3280  140.3200  169.3393 C.3     1  UNL1        0.2090
     18 O         138.6285  139.3793  168.4035 O.3     1  UNL1       -0.4753
     19 C         138.8797  139.4653  166.9271 C.ar    1  UNL1        0.1387
     20 C         138.6535  138.2648  166.0567 C.ar    1  UNL1        0.0392
     21 C         138.9047  138.3509  164.5804 C.ar    1  UNL1        0.0327
     22 C         139.3820  139.6374  163.9745 C.ar    1  UNL1        0.1403
     23 F         139.6331  139.7234  162.4981 F       1  UNL1       -0.2042
     24 C         139.6081  140.8378  164.8449 C.ar    1  UNL1        0.0327
     25 C         139.3570  140.7518  166.3212 C.ar    1  UNL1        0.0392
@<TRIPOS>BOND
     1     3     4    2
     2     4     1    1
     3     1    15    1
     4    15    16    1
     5    16    17    1
     6    17    18    1
     7    18    19    1
     8    19    20   ar
     9    20    21   ar
    10    21    22   ar
    11    22    23    1
    12    22    24   ar
    13    24    25   ar
    14     4     6    1
    15     6     8    1
    16     8     9   ar
    17     9    10   ar
    18    10    11   ar
    19    11    12    1
    20    11    13   ar
    21    13    14   ar
    22    25    19   ar
    23    14     8   ar
    24     3     5    1
    25     1     2    1
    26     6     7    1
@<TRIPOS>MOLECULE
*****
 25 26 0 0 0
SMALL
GASTEIGER

@<TRIPOS>ATOM
      1 N         138.2270  144.6727  162.6061 N.pl3   1  UNL1       -0.2619
      2 H         137.5800  145.1059  163.2085 H       1  UNL1        0.2588
      3 N         139.6166  145.8862  160.7767 N.pl3   1  UNL1       -0.1293
      4 C         139.4691  145.4031  162.1891 C.cat   1  UNL1        0.3840
      5 H         138.8982  145.7240  160.1234 H       1  UNL1        0.3062
      6 N         140.5637  145.6503  163.1844 N.pl3   1  UNL1       -0.2424
      7 H         140.5338  146.4478  163.7610 H       1  UNL1        0.2649
      8 C         141.7037  144.6825  163.3014 C.ar    1  UNL1        0.1168
      9 C         142.9413  145.0691  164.0556 C.ar    1  UNL1        0.0338
     10 C         144.0814  144.1012  164.1725 C.ar    1  UNL1        0.0087
     11 C         143.9837  142.7468  163.5352 C.ar    1  UNL1        0.0303
     12 I         145.1238  141.7790  163.6521 I       1  UNL1       -0.0425
     13 C         142.7461  142.3603  162.7810 C.ar    1  UNL1        0.0087
     14 C         141.6061  143.3281  162.6641 C.ar    1  UNL1        0.0338
     15 C         137.9708  143.2822  162.1052 C.3     1  UNL1        0.1778
     16 C         137.7764  142.1582  163.0792 C.3     1  UNL1        0.0901
     17 C         137.8421  142.4239  164.5540 C.3     1  UNL1        0.2090
     18 O         139.1072  142.9482  165.1660 O.3     1  UNL1       -0.4753
     19 C         140.1362  141.9934  165.6950 C.ar    1  UNL1        0.1387
     20 C         139.9072  140.5142  165.5976 C.ar    1  UNL1        0.0392
     21 C         140.9362  139.5596  166.1265 C.ar    1  UNL1        0.0327
     22 C         142.1941  140.0842  166.7530 C.ar    1  UNL1        0.1403
     23 F         143.2231  139.1294  167.2820 F       1  UNL1       -0.2042
     24 C         142.4231  141.5633  166.8505 C.ar    1  UNL1        0.0327
     25 C         141.3941  142.5180  166.3215 C.ar    1  UNL1        0.0392
@<TRIPOS>BOND
     1     3     4    2
     2     4     1    1
     3     1    15    1
     4    15    16    1
     5    16    17    1
     6    17    18    1
     7    18    19    1
     8    19    20   ar
     9    20    21   ar
    10    21    22   ar
    11    22    23    1
    12    22    24   ar
    13    24    25   ar
    14     4     6    1
    15     6     8    1
    16     8     9   ar
    17     9    10   ar
    18    10    11   ar
    19    11    12    1
    20    11    13   ar
    21    13    14   ar
    22    25    19   ar
    23    14     8   ar
    24     3     5    1
    25     1     2    1
    26     6     7    1
@<TRIPOS>MOLECULE
*****
 25 26 0 0 0
SMALL
GASTEIGER

@<TRIPOS>ATOM
      1 N         137.8004  143.4487  162.0304 N.pl3   1  UNL1       -0.2619
      2 H         137.8245  143.7871  161.1061 H       1  UNL1        0.2588
      3 N         136.7616  141.2807  163.0156 N.pl3   1  UNL1       -0.1293
      4 C         137.8775  141.9736  162.2913 C.cat   1  UNL1        0.3840
      5 H         135.9786  141.7941  163.3198 H       1  UNL1        0.3062
      6 N         139.0705  141.1913  161.8278 N.pl3   1  UNL1       -0.2424
      7 H         139.2138  141.0356  160.8663 H       1  UNL1        0.2649
      8 C         140.0452  140.6464  162.8293 C.ar    1  UNL1        0.1168
      9 C         141.2975  139.9650  162.3631 C.ar    1  UNL1        0.0338
     10 C         142.2722  139.4200  163.3647 C.ar    1  UNL1        0.0087
     11 C         141.9946  139.5566  164.8324 C.ar    1  UNL1        0.0303
     12 I         142.9693  139.0116  165.8340 I       1  UNL1       -0.0425
     13 C         140.7423  140.2380  165.2986 C.ar    1  UNL1        0.0087
     14 C         139.7676  140.7829  164.2971 C.ar    1  UNL1        0.0338
     15 C         137.6866  144.4083  163.1776 C.3     1  UNL1        0.1778
     16 C         138.4874  144.1833  164.4258 C.3     1  UNL1        0.0901
     17 C         139.9477  144.5253  164.4519 C.3     1  UNL1        0.2090
     18 O         140.8095  144.2259  163.2614 O.3     1  UNL1       -0.4753
     19 C         142.1533  143.5865  163.4500 C.ar    1  UNL1        0.1387
     20 C         142.6809  143.3437  164.8330 C.ar    1  UNL1        0.0392
     21 C         144.0246  142.7044  165.0216 C.ar    1  UNL1        0.0327
     22 C         144.8408  142.3079  163.8272 C.ar    1  UNL1        0.1403
     23 F         146.1846  141.6685  164.0158 F       1  UNL1       -0.2042
     24 C         144.3133  142.5507  162.4442 C.ar    1  UNL1        0.0327
     25 C         142.9695  143.1900  162.2556 C.ar    1  UNL1        0.0392
@<TRIPOS>BOND
     1     3     4    2
     2     4     1    1
     3     1    15    1
     4    15    16    1
     5    16    17    1
     6    17    18    1
     7    18    19    1
     8    19    20   ar
     9    20    21   ar
    10    21    22   ar
    11    22    23    1
    12    22    24   ar
    13    24    25   ar
    14     4     6    1
    15     6     8    1
    16     8     9   ar
    17     9    10   ar
    18    10    11   ar
    19    11    12    1
    20    11    13   ar
    21    13    14   ar
    22    25    19   ar
    23    14     8   ar
    24     3     5    1
    25     1     2    1
    26     6     7    1
@<TRIPOS>MOLECULE
*****
 25 26 0 0 0
SMALL
GASTEIGER

@<TRIPOS>ATOM
      1 N         139.7981  145.3911  163.8235 N.pl3   1  UNL1       -0.2619
      2 H         139.4593  145.8155  164.6447 H       1  UNL1        0.2588
      3 N         139.3430  146.2656  161.4196 N.pl3   1  UNL1       -0.1293
      4 C         138.9616  145.3927  162.5783 C.cat   1  UNL1        0.3840
      5 H         140.1424  146.8375  161.4764 H       1  UNL1        0.3062
      6 N         137.7437  144.5214  162.4919 N.pl3   1  UNL1       -0.2424
      7 H         136.8464  144.9256  162.5175 H       1  UNL1        0.2649
      8 C         137.8930  143.0341  162.3665 C.ar    1  UNL1        0.1168
      9 C         137.6356  142.1519  163.5519 C.ar    1  UNL1        0.0338
     10 C         137.7849  140.6646  163.4264 C.ar    1  UNL1        0.0087
     11 C         138.1917  140.0596  162.1155 C.ar    1  UNL1        0.0303
     12 I         138.3410  138.5722  161.9901 I       1  UNL1       -0.0425
     13 C         138.4491  140.9418  160.9301 C.ar    1  UNL1        0.0087
     14 C         138.2998  142.4291  161.0555 C.ar    1  UNL1        0.0338
     15 C         141.1509  144.7431  163.8174 C.3     1  UNL1        0.1778
     16 C         141.2661  143.2476  163.8283 C.3     1  UNL1        0.0901
     17 C         141.7080  142.5204  162.5930 C.3     1  UNL1        0.2090
     18 O         141.6216  141.0241  162.5322 O.3     1  UNL1       -0.4753
     19 C         142.2435  140.1924  163.6145 C.ar    1  UNL1        0.1387
     20 C         141.3752  139.5206  164.6366 C.ar    1  UNL1        0.0392
     21 C         141.9971  138.6889  165.7189 C.ar    1  UNL1        0.0327
     22 C         143.4874  138.5289  165.7791 C.ar    1  UNL1        0.1403
     23 F         144.1093  137.6971  166.8615 F       1  UNL1       -0.2042
     24 C         144.3557  139.2007  164.7570 C.ar    1  UNL1        0.0327
     25 C         143.7337  140.0324  163.6748 C.ar    1  UNL1        0.0392
@<TRIPOS>BOND
     1     3     4    2
     2     4     1    1
     3     1    15    1
     4    15    16    1
     5    16    17    1
     6    17    18    1
     7    18    19    1
     8    19    20   ar
     9    20    21   ar
    10    21    22   ar
    11    22    23    1
    12    22    24   ar
    13    24    25   ar
    14     4     6    1
    15     6     8    1
    16     8     9   ar
    17     9    10   ar
    18    10    11   ar
    19    11    12    1
    20    11    13   ar
    21    13    14   ar
    22    25    19   ar
    23    14     8   ar
    24     3     5    1
    25     1     2    1
    26     6     7    1
@<TRIPOS>MOLECULE
*****
 25 26 0 0 0
SMALL
GASTEIGER

@<TRIPOS>ATOM
      1 N         141.5484  145.6044  160.2020 N.pl3   1  UNL1       -0.2619
      2 H         142.3396  146.1221  160.4766 H       1  UNL1        0.2588
      3 N         140.1509  146.5887  162.1587 N.pl3   1  UNL1       -0.1293
      4 C         140.3404  145.5534  161.0899 C.cat   1  UNL1        0.3840
      5 H         140.8193  147.3017  162.2774 H       1  UNL1        0.3062
      6 N         139.3219  144.4672  160.9089 N.pl3   1  UNL1       -0.2424
      7 H         138.7622  144.4471  160.0993 H       1  UNL1        0.2649
      8 C         139.1564  143.4115  161.9615 C.ar    1  UNL1        0.1168
      9 C         137.8356  143.2412  162.6518 C.ar    1  UNL1        0.0338
     10 C         137.6701  142.1854  163.7045 C.ar    1  UNL1        0.0087
     11 C         138.8254  141.3000  164.0668 C.ar    1  UNL1        0.0303
     12 I         138.6599  140.2442  165.1195 I       1  UNL1       -0.0425
     13 C         140.1462  141.4703  163.3765 C.ar    1  UNL1        0.0087
     14 C         140.3117  142.5260  162.3239 C.ar    1  UNL1        0.0338
     15 C         141.5509  144.8668  158.8960 C.3     1  UNL1        0.1778
     16 C         142.5632  143.7886  158.6455 C.3     1  UNL1        0.0901
     17 C         143.0338  142.9242  159.7775 C.3     1  UNL1        0.2090
     18 O         144.3082  143.2566  160.4954 O.3     1  UNL1       -0.4753
     19 C         144.3394  143.2830  161.9949 C.ar    1  UNL1        0.1387
     20 C         143.6422  144.3822  162.7403 C.ar    1  UNL1        0.0392
     21 C         143.6735  144.4087  164.2397 C.ar    1  UNL1        0.0327
     22 C         144.4019  143.3359  164.9937 C.ar    1  UNL1        0.1403
     23 F         144.4331  143.3624  166.4932 F       1  UNL1       -0.2042
     24 C         145.0991  142.2367  164.2483 C.ar    1  UNL1        0.0327
     25 C         145.0678  142.2103  162.7489 C.ar    1  UNL1        0.0392
@<TRIPOS>BOND
     1     3     4    2
     2     4     1    1
     3     1    15    1
     4    15    16    1
     5    16    17    1
     6    17    18    1
     7    18    19    1
     8    19    20   ar
     9    20    21   ar
    10    21    22   ar
    11    22    23    1
    12    22    24   ar
    13    24    25   ar
    14     4     6    1
    15     6     8    1
    16     8     9   ar
    17     9    10   ar
    18    10    11   ar
    19    11    12    1
    20    11    13   ar
    21    13    14   ar
    22    25    19   ar
    23    14     8   ar
    24     3     5    1
    25     1     2    1
    26     6     7    1
@<TRIPOS>MOLECULE
*****
 25 26 0 0 0
SMALL
GASTEIGER

@<TRIPOS>ATOM
      1 N         137.7015  144.4461  162.6464 N.pl3   1  UNL1       -0.2619
      2 H         136.8228  144.8282  162.4200 H       1  UNL1        0.2588
      3 N         139.2779  146.0461  161.3405 N.pl3   1  UNL1       -0.1293
      4 C         138.9287  145.3074  162.5985 C.cat   1  UNL1        0.3840
      5 H         138.7017  145.9656  160.5463 H       1  UNL1        0.3062
      6 N         139.8066  145.4300  163.8085 N.pl3   1  UNL1       -0.2424
      7 H         139.5456  146.0255  164.5477 H       1  UNL1        0.2649
      8 C         141.0821  144.6452  163.8922 C.ar    1  UNL1        0.1168
      9 C         141.2030  143.5121  164.8677 C.ar    1  UNL1        0.0338
     10 C         142.4786  142.7273  164.9513 C.ar    1  UNL1        0.0087
     11 C         143.6333  143.0756  164.0595 C.ar    1  UNL1        0.0303
     12 I         144.9090  142.2908  164.1432 I       1  UNL1       -0.0425
     13 C         143.5125  144.2087  163.0841 C.ar    1  UNL1        0.0087
     14 C         142.2369  144.9935  163.0004 C.ar    1  UNL1        0.0338
     15 C         137.8130  143.0028  163.0391 C.3     1  UNL1        0.1778
     16 C         138.2995  141.9905  162.0448 C.3     1  UNL1        0.0901
     17 C         139.7620  141.8963  161.7248 C.3     1  UNL1        0.2090
     18 O         140.6356  140.9414  162.4830 O.3     1  UNL1       -0.4753
     19 C         140.0166  139.8872  163.3524 C.ar    1  UNL1        0.1387
     20 C         139.5714  138.5866  162.7524 C.ar    1  UNL1        0.0392
     21 C         138.9525  137.5325  163.6217 C.ar    1  UNL1        0.0327
     22 C         138.7788  137.7791  165.0911 C.ar    1  UNL1        0.1403
     23 F         138.1599  136.7249  165.9605 F       1  UNL1       -0.2042
     24 C         139.2241  139.0797  165.6911 C.ar    1  UNL1        0.0327
     25 C         139.8430  140.1338  164.8217 C.ar    1  UNL1        0.0392
@<TRIPOS>BOND
     1     3     4    2
     2     4     1    1
     3     1    15    1
     4    15    16    1
     5    16    17    1
     6    17    18    1
     7    18    19    1
     8    19    20   ar
     9    20    21   ar
    10    21    22   ar
    11    22    23    1
    12    22    24   ar
    13    24    25   ar
    14     4     6    1
    15     6     8    1
    16     8     9   ar
    17     9    10   ar
    18    10    11   ar
    19    11    12    1
    20    11    13   ar
    21    13    14   ar
    22    25    19   ar
    23    14     8   ar
    24     3     5    1
    25     1     2    1
    26     6     7    1
