@<TRIPOS>MOLECULE
*****
 33 36 0 0 0
SMALL
GASTEIGER

@<TRIPOS>ATOM
      1 N         142.9729  141.6797  164.1660 N.3     1  UNL1       -0.2647
      2 C         143.0207  140.2402  163.7470 C.3     1  UNL1        0.1037
      3 C         142.4188  139.8195  162.4391 C.3     1  UNL1        0.1470
      4 C         141.8169  139.3987  161.1311 C.3     1  UNL1        0.1035
      5 N         141.1672  140.4174  160.2422 N.3     1  UNL1       -0.2673
      6 C         141.1193  141.8569  160.6613 C.3     1  UNL1        0.1035
      7 C         141.7212  142.2776  161.9692 C.3     1  UNL1        0.1470
      8 C         142.3231  142.6984  163.2771 C.3     1  UNL1        0.1037
      9 O         141.7691  140.8382  161.5502 O.3     1  UNL1       -0.3530
     10 C         143.5748  142.1005  165.4740 C.3     1  UNL1        0.0993
     11 C         140.9288  142.8083  169.0443 C.ar    1  UNL1        0.0684
     12 C         142.3993  142.5809  169.2339 C.ar    1  UNL1        0.0100
     13 C         143.2813  142.3450  168.0438 C.ar    1  UNL1       -0.0022
     14 C         142.6928  142.3364  166.6641 C.ar    1  UNL1       -0.0061
     15 C         141.2223  142.5638  166.4745 C.ar    1  UNL1       -0.0022
     16 C         140.3403  142.7997  167.6646 C.ar    1  UNL1        0.0100
     17 N         139.1648  143.2802  171.4246 N.1     1  UNL1       -0.1908
     18 C         140.0468  143.0442  170.2344 C.1     1  UNL1        0.1004
     19 C         140.5653  139.9966  158.9343 C.3     1  UNL1        0.0913
     20 C         139.0919  140.1547  158.7013 C.3     1  UNL1        0.1087
     21 N         138.1132  139.3904  159.5427 N.3     1  UNL1       -0.1780
     22 H         138.1785  138.4137  159.2563 H       1  UNL1        0.1488
     23 S         138.2322  139.4121  161.0378 S.O2    1  UNL1        0.0603
     24 O         137.8020  140.8490  161.0512 O.2     1  UNL1       -0.1530
     25 O         138.6624  137.9752  161.0244 O.2     1  UNL1       -0.1530
     26 C         138.3513  139.4337  162.5330 C.ar    1  UNL1        0.1220
     27 C         138.0896  140.7032  163.2879 C.ar    1  UNL1        0.0206
     28 C         138.2086  140.7249  164.7830 C.ar    1  UNL1        0.0116
     29 C         138.5893  139.4771  165.5231 C.ar    1  UNL1        0.0685
     30 C         138.8510  138.2075  164.7682 C.ar    1  UNL1        0.0116
     31 C         138.7319  138.1859  163.2732 C.ar    1  UNL1        0.0206
     32 C         138.7084  139.4987  167.0183 C.1     1  UNL1        0.1004
     33 N         138.8274  139.5203  168.5134 N.1     1  UNL1       -0.1908
@<TRIPOS>BOND
     1    17    18    3
     2    18    11    1
     3    11    12   ar
     4    12    13   ar
     5    13    14   ar
     6    14    10    1
     7    10     1    1
     8     1     2    1
     9     2     3    1
    10     3     4    1
    11     4     5    1
    12     5    19    1
    13    19    20    1
    14    20    21    1
    15    21    23    1
    16    23    24    2
    17    23    25    2
    18    23    26    1
    19    26    27   ar
    20    27    28   ar
    21    28    29   ar
    22    29    32    1
    23    32    33    3
    24    29    30   ar
    25    30    31   ar
    26     5     6    1
    27     6     7    1
    28     7     8    1
    29     7     9    1
    30    14    15   ar
    31    15    16   ar
    32    16    11   ar
    33     8     1    1
    34     9     3    1
    35    31    26   ar
    36    21    22    1
@<TRIPOS>MOLECULE
*****
 33 36 0 0 0
SMALL
GASTEIGER

@<TRIPOS>ATOM
      1 N         143.0068  141.3709  164.3181 N.3     1  UNL1       -0.2647
      2 C         142.9401  142.2272  163.0883 C.3     1  UNL1        0.1037
      3 C         142.3596  141.6748  161.8204 C.3     1  UNL1        0.1470
      4 C         141.7790  141.1223  160.5524 C.3     1  UNL1        0.1035
      5 N         141.2652  139.7136  160.5141 N.3     1  UNL1       -0.2673
      6 C         141.3318  138.8573  161.7440 C.3     1  UNL1        0.1035
      7 C         141.9124  139.4098  163.0119 C.3     1  UNL1        0.1470
      8 C         142.4929  139.9622  164.2799 C.3     1  UNL1        0.1037
      9 O         141.8457  140.2660  161.7822 O.3     1  UNL1       -0.3530
     10 C         143.5874  141.9234  165.5861 C.3     1  UNL1        0.0993
     11 C         140.9030  142.8292  169.0823 C.ar    1  UNL1        0.0684
     12 C         140.3590  142.8826  167.6855 C.ar    1  UNL1        0.0100
     13 C         141.2538  142.5806  166.5200 C.ar    1  UNL1       -0.0022
     14 C         142.6926  142.2253  166.7515 C.ar    1  UNL1       -0.0061
     15 C         143.2366  142.1719  168.1484 C.ar    1  UNL1       -0.0022
     16 C         142.3418  142.4738  169.3138 C.ar    1  UNL1        0.0100
     17 N         139.1133  143.4330  171.4131 N.1     1  UNL1       -0.1908
     18 C         140.0082  143.1311  170.2477 C.1     1  UNL1        0.1004
     19 C         140.6846  139.1612  159.2462 C.3     1  UNL1        0.0913
     20 C         139.2562  138.7043  159.2120 C.3     1  UNL1        0.1087
     21 N         138.1459  139.7023  159.3569 N.3     1  UNL1       -0.1780
     22 H         137.2778  139.1702  159.4175 H       1  UNL1        0.1488
     23 S         138.1464  140.6628  160.5090 S.O2    1  UNL1        0.0603
     24 O         137.8440  139.5344  161.4498 O.2     1  UNL1       -0.1530
     25 O         138.4488  141.7912  159.5681 O.2     1  UNL1       -0.1530
     26 C         138.1470  141.6234  161.6611 C.ar    1  UNL1        0.1220
     27 C         137.7507  141.1536  163.0294 C.ar    1  UNL1        0.0206
     28 C         137.7512  142.1141  164.1815 C.ar    1  UNL1        0.0116
     29 C         138.1481  143.5444  163.9653 C.ar    1  UNL1        0.0685
     30 C         138.5444  144.0142  162.5970 C.ar    1  UNL1        0.0116
     31 C         138.5439  143.0537  161.4449 C.ar    1  UNL1        0.0206
     32 C         138.1487  144.5050  165.1174 C.1     1  UNL1        0.1004
     33 N         138.1493  145.4655  166.2695 N.1     1  UNL1       -0.1908
@<TRIPOS>BOND
     1    17    18    3
     2    18    11    1
     3    11    12   ar
     4    12    13   ar
     5    13    14   ar
     6    14    10    1
     7    10     1    1
     8     1     2    1
     9     2     3    1
    10     3     4    1
    11     4     5    1
    12     5    19    1
    13    19    20    1
    14    20    21    1
    15    21    23    1
    16    23    24    2
    17    23    25    2
    18    23    26    1
    19    26    27   ar
    20    27    28   ar
    21    28    29   ar
    22    29    32    1
    23    32    33    3
    24    29    30   ar
    25    30    31   ar
    26     5     6    1
    27     6     7    1
    28     7     8    1
    29     7     9    1
    30    14    15   ar
    31    15    16   ar
    32    16    11   ar
    33     8     1    1
    34     9     3    1
    35    31    26   ar
    36    21    22    1
@<TRIPOS>MOLECULE
*****
 33 36 0 0 0
SMALL
GASTEIGER

@<TRIPOS>ATOM
      1 N         143.1049  142.0759  165.2211 N.3     1  UNL1       -0.2647
      2 C         142.1614  142.5897  164.1742 C.3     1  UNL1        0.1037
      3 C         142.3281  142.1705  162.7437 C.3     1  UNL1        0.1470
      4 C         142.4948  141.7514  161.3131 C.3     1  UNL1        0.1035
      5 N         143.6049  140.8184  160.9294 N.3     1  UNL1       -0.2673
      6 C         144.5484  140.3046  161.9763 C.3     1  UNL1        0.1035
      7 C         144.3817  140.7238  163.4068 C.3     1  UNL1        0.1470
      8 C         144.2150  141.1430  164.8374 C.3     1  UNL1        0.1037
      9 O         143.4382  141.2376  162.3600 O.3     1  UNL1       -0.3530
     10 C         142.9382  142.4951  166.6517 C.3     1  UNL1        0.0993
     11 C         139.6493  140.7099  169.1509 C.ar    1  UNL1        0.0684
     12 C         140.3487  139.8717  168.1222 C.ar    1  UNL1        0.0100
     13 C         141.4451  140.4668  167.2891 C.ar    1  UNL1       -0.0022
     14 C         141.8419  141.9000  167.4847 C.ar    1  UNL1       -0.0061
     15 C         141.1424  142.7382  168.5135 C.ar    1  UNL1       -0.0022
     16 C         140.0462  142.1432  169.3465 C.ar    1  UNL1        0.0100
     17 N         137.4567  139.5198  170.8170 N.1     1  UNL1       -0.1908
     18 C         138.5530  140.1148  169.9839 C.1     1  UNL1        0.1004
     19 C         143.7716  140.3992  159.4989 C.3     1  UNL1        0.0913
     20 C         142.9816  139.2440  158.9589 C.3     1  UNL1        0.1087
     21 N         142.8407  137.9885  159.7674 N.3     1  UNL1       -0.1780
     22 H         143.7752  137.7421  160.0938 H       1  UNL1        0.1488
     23 S         141.9427  137.9668  160.9686 S.O2    1  UNL1        0.0603
     24 O         140.7862  138.3886  160.1116 O.2     1  UNL1       -0.1530
     25 O         143.0992  137.5451  161.8256 O.2     1  UNL1       -0.1530
     26 C         141.0446  137.9451  162.1699 C.ar    1  UNL1        0.1220
     27 C         139.5626  138.1035  162.0013 C.ar    1  UNL1        0.0206
     28 C         138.6645  138.0818  163.2026 C.ar    1  UNL1        0.0116
     29 C         139.2486  137.9018  164.5724 C.ar    1  UNL1        0.0685
     30 C         140.7306  137.7434  164.7410 C.ar    1  UNL1        0.0116
     31 C         141.6287  137.7651  163.5398 C.ar    1  UNL1        0.0206
     32 C         138.3505  137.8801  165.7737 C.1     1  UNL1        0.1004
     33 N         137.4525  137.8584  166.9750 N.1     1  UNL1       -0.1908
@<TRIPOS>BOND
     1    17    18    3
     2    18    11    1
     3    11    12   ar
     4    12    13   ar
     5    13    14   ar
     6    14    10    1
     7    10     1    1
     8     1     2    1
     9     2     3    1
    10     3     4    1
    11     4     5    1
    12     5    19    1
    13    19    20    1
    14    20    21    1
    15    21    23    1
    16    23    24    2
    17    23    25    2
    18    23    26    1
    19    26    27   ar
    20    27    28   ar
    21    28    29   ar
    22    29    32    1
    23    32    33    3
    24    29    30   ar
    25    30    31   ar
    26     5     6    1
    27     6     7    1
    28     7     8    1
    29     7     9    1
    30    14    15   ar
    31    15    16   ar
    32    16    11   ar
    33     8     1    1
    34     9     3    1
    35    31    26   ar
    36    21    22    1
@<TRIPOS>MOLECULE
*****
 33 36 0 0 0
SMALL
GASTEIGER

@<TRIPOS>ATOM
      1 N         143.2202  142.9001  164.5259 N.3     1  UNL1       -0.2647
      2 C         142.4328  144.1422  164.2310 C.3     1  UNL1        0.1037
      3 C         141.8652  144.3626  162.8601 C.3     1  UNL1        0.1470
      4 C         141.2976  144.5830  161.4892 C.3     1  UNL1        0.1035
      5 N         141.5173  143.5612  160.4133 N.3     1  UNL1       -0.2673
      6 C         142.3048  142.3189  160.7083 C.3     1  UNL1        0.1035
      7 C         142.8724  142.0986  162.0791 C.3     1  UNL1        0.1470
      8 C         143.4400  141.8782  163.4500 C.3     1  UNL1        0.1037
      9 O         142.0850  143.3408  161.7842 O.3     1  UNL1       -0.3530
     10 C         143.7878  142.6797  165.8968 C.3     1  UNL1        0.0993
     11 C         141.2622  140.7774  169.0987 C.ar    1  UNL1        0.0684
     12 C         142.3977  141.6813  169.4774 C.ar    1  UNL1        0.0100
     13 C         143.2397  142.3154  168.4101 C.ar    1  UNL1       -0.0022
     14 C         142.9460  142.0456  166.9641 C.ar    1  UNL1       -0.0061
     15 C         141.8103  141.1417  166.5854 C.ar    1  UNL1       -0.0022
     16 C         140.9685  140.5076  167.6527 C.ar    1  UNL1        0.0100
     17 N         139.5784  139.5093  171.2334 N.1     1  UNL1       -0.1908
     18 C         140.4203  140.1433  170.1660 C.1     1  UNL1        0.1004
     19 C         140.9498  143.7815  159.0425 C.3     1  UNL1        0.0913
     20 C         139.7730  142.9747  158.5794 C.3     1  UNL1        0.1087
     21 N         138.4965  142.9901  159.3669 N.3     1  UNL1       -0.1780
     22 H         137.7737  142.5973  158.7638 H       1  UNL1        0.1488
     23 S         138.4132  142.2602  160.6746 S.O2    1  UNL1        0.0603
     24 O         138.8686  141.0001  160.0002 O.2     1  UNL1       -0.1530
     25 O         137.9578  143.5202  161.3490 O.2     1  UNL1       -0.1530
     26 C         138.3299  141.5302  161.9824 C.ar    1  UNL1        0.1220
     27 C         138.4228  140.0334  162.0131 C.ar    1  UNL1        0.0206
     28 C         138.3395  139.3034  163.3208 C.ar    1  UNL1        0.0116
     29 C         138.1633  140.0703  164.5978 C.ar    1  UNL1        0.0685
     30 C         138.0704  141.5671  164.5671 C.ar    1  UNL1        0.0116
     31 C         138.1537  142.2970  163.2594 C.ar    1  UNL1        0.0206
     32 C         138.0800  139.3403  165.9056 C.1     1  UNL1        0.1004
     33 N         137.9967  138.6103  167.2133 N.1     1  UNL1       -0.1908
@<TRIPOS>BOND
     1    17    18    3
     2    18    11    1
     3    11    12   ar
     4    12    13   ar
     5    13    14   ar
     6    14    10    1
     7    10     1    1
     8     1     2    1
     9     2     3    1
    10     3     4    1
    11     4     5    1
    12     5    19    1
    13    19    20    1
    14    20    21    1
    15    21    23    1
    16    23    24    2
    17    23    25    2
    18    23    26    1
    19    26    27   ar
    20    27    28   ar
    21    28    29   ar
    22    29    32    1
    23    32    33    3
    24    29    30   ar
    25    30    31   ar
    26     5     6    1
    27     6     7    1
    28     7     8    1
    29     7     9    1
    30    14    15   ar
    31    15    16   ar
    32    16    11   ar
    33     8     1    1
    34     9     3    1
    35    31    26   ar
    36    21    22    1
@<TRIPOS>MOLECULE
*****
 33 36 0 0 0
SMALL
GASTEIGER

@<TRIPOS>ATOM
      1 N         139.4779  139.0449  162.4161 N.3     1  UNL1       -0.2647
      2 C         140.7208  139.1531  161.5834 C.3     1  UNL1        0.1037
      3 C         140.7539  140.0765  160.4019 C.3     1  UNL1        0.1470
      4 C         140.7871  141.0000  159.2203 C.3     1  UNL1        0.1035
      5 N         139.5773  141.8153  158.8714 N.3     1  UNL1       -0.2673
      6 C         138.3343  141.7071  159.7042 C.3     1  UNL1        0.1035
      7 C         138.3012  140.7837  160.8857 C.3     1  UNL1        0.1470
      8 C         138.2681  139.8602  162.0673 C.3     1  UNL1        0.1037
      9 O         139.5441  140.8918  160.0531 O.3     1  UNL1       -0.3530
     10 C         139.4447  138.1214  163.5977 C.3     1  UNL1        0.0993
     11 C         139.3841  139.8069  167.7697 C.ar    1  UNL1        0.0684
     12 C         140.5910  140.0001  166.9003 C.ar    1  UNL1        0.0100
     13 C         140.6112  139.4383  165.5095 C.ar    1  UNL1       -0.0022
     14 C         139.4245  138.6832  164.9884 C.ar    1  UNL1       -0.0061
     15 C         138.2176  138.4900  165.8579 C.ar    1  UNL1       -0.0022
     16 C         138.1974  139.0518  167.2486 C.ar    1  UNL1        0.0100
     17 N         139.3437  140.9305  170.5511 N.1     1  UNL1       -0.1908
     18 C         139.3639  140.3687  169.1604 C.1     1  UNL1        0.1004
     19 C         139.6104  142.7388  157.6899 C.3     1  UNL1        0.0913
     20 C         140.1133  144.1430  157.8493 C.3     1  UNL1        0.1087
     21 N         139.8226  144.9054  159.1080 N.3     1  UNL1       -0.1780
     22 H         138.8921  144.6226  159.4153 H       1  UNL1        0.1488
     23 S         140.7305  144.7688  160.2941 S.O2    1  UNL1        0.0603
     24 O         141.9211  144.7591  159.3818 O.2     1  UNL1       -0.1530
     25 O         139.5399  144.7784  161.2065 O.2     1  UNL1       -0.1530
     26 C         141.6384  144.6321  161.4804 C.ar    1  UNL1        0.1220
     27 C         142.8851  143.8043  161.3793 C.ar    1  UNL1        0.0206
     28 C         143.7930  143.6677  162.5655 C.ar    1  UNL1        0.0116
     29 C         143.4540  144.3588  163.8528 C.ar    1  UNL1        0.0685
     30 C         142.2072  145.1866  163.9540 C.ar    1  UNL1        0.0116
     31 C         141.2994  145.3233  162.7678 C.ar    1  UNL1        0.0206
     32 C         144.3619  144.2222  165.0391 C.1     1  UNL1        0.1004
     33 N         145.2696  144.0856  166.2254 N.1     1  UNL1       -0.1908
@<TRIPOS>BOND
     1    17    18    3
     2    18    11    1
     3    11    12   ar
     4    12    13   ar
     5    13    14   ar
     6    14    10    1
     7    10     1    1
     8     1     2    1
     9     2     3    1
    10     3     4    1
    11     4     5    1
    12     5    19    1
    13    19    20    1
    14    20    21    1
    15    21    23    1
    16    23    24    2
    17    23    25    2
    18    23    26    1
    19    26    27   ar
    20    27    28   ar
    21    28    29   ar
    22    29    32    1
    23    32    33    3
    24    29    30   ar
    25    30    31   ar
    26     5     6    1
    27     6     7    1
    28     7     8    1
    29     7     9    1
    30    14    15   ar
    31    15    16   ar
    32    16    11   ar
    33     8     1    1
    34     9     3    1
    35    31    26   ar
    36    21    22    1
@<TRIPOS>MOLECULE
*****
 33 36 0 0 0
SMALL
GASTEIGER

@<TRIPOS>ATOM
      1 N         143.7362  139.1520  164.0589 N.3     1  UNL1       -0.2647
      2 C         143.3283  138.3963  162.8291 C.3     1  UNL1        0.1037
      3 C         143.4407  139.0424  161.4801 C.3     1  UNL1        0.1470
      4 C         143.5532  139.6885  160.1309 C.3     1  UNL1        0.1035
      5 N         144.0736  141.0902  160.0117 N.3     1  UNL1       -0.2673
      6 C         144.4816  141.8459  161.2416 C.3     1  UNL1        0.1035
      7 C         144.3691  141.1999  162.5906 C.3     1  UNL1        0.1470
      8 C         144.2566  140.5538  163.9397 C.3     1  UNL1        0.1037
      9 O         143.9612  140.4442  161.3608 O.3     1  UNL1       -0.3530
     10 C         143.6237  138.5060  165.4080 C.3     1  UNL1        0.0993
     11 C         140.6171  140.0303  168.3890 C.ar    1  UNL1        0.0684
     12 C         141.9881  139.6279  168.8455 C.ar    1  UNL1        0.0100
     13 C         142.9904  139.1198  167.8518 C.ar    1  UNL1       -0.0022
     14 C         142.6216  139.0141  166.4017 C.ar    1  UNL1       -0.0061
     15 C         141.2505  139.4165  165.9453 C.ar    1  UNL1       -0.0022
     16 C         140.2483  139.9246  166.9389 C.ar    1  UNL1        0.0100
     17 N         138.6127  141.0465  170.3764 N.1     1  UNL1       -0.1908
     18 C         139.6149  140.5384  169.3827 C.1     1  UNL1        0.1004
     19 C         144.1861  141.7363  158.6627 C.3     1  UNL1        0.0913
     20 C         143.5830  143.0893  158.4264 C.3     1  UNL1        0.1087
     21 N         142.0956  143.2700  158.4964 N.3     1  UNL1       -0.1780
     22 H         141.6775  142.3937  158.1840 H       1  UNL1        0.1488
     23 S         141.4433  143.6202  159.8009 S.O2    1  UNL1        0.0603
     24 O         142.0882  144.9738  159.7600 O.2     1  UNL1       -0.1530
     25 O         140.7983  142.2666  159.8417 O.2     1  UNL1       -0.1530
     26 C         140.7908  143.9704  161.1054 C.ar    1  UNL1        0.1220
     27 C         139.3587  143.5982  161.3515 C.ar    1  UNL1        0.0206
     28 C         138.7063  143.9483  162.6559 C.ar    1  UNL1        0.0116
     29 C         139.4859  144.6707  163.7143 C.ar    1  UNL1        0.0685
     30 C         140.9180  145.0430  163.4683 C.ar    1  UNL1        0.0116
     31 C         141.5705  144.6928  162.1638 C.ar    1  UNL1        0.0206
     32 C         138.8335  145.0209  165.0189 C.1     1  UNL1        0.1004
     33 N         138.1811  145.3711  166.3234 N.1     1  UNL1       -0.1908
@<TRIPOS>BOND
     1    17    18    3
     2    18    11    1
     3    11    12   ar
     4    12    13   ar
     5    13    14   ar
     6    14    10    1
     7    10     1    1
     8     1     2    1
     9     2     3    1
    10     3     4    1
    11     4     5    1
    12     5    19    1
    13    19    20    1
    14    20    21    1
    15    21    23    1
    16    23    24    2
    17    23    25    2
    18    23    26    1
    19    26    27   ar
    20    27    28   ar
    21    28    29   ar
    22    29    32    1
    23    32    33    3
    24    29    30   ar
    25    30    31   ar
    26     5     6    1
    27     6     7    1
    28     7     8    1
    29     7     9    1
    30    14    15   ar
    31    15    16   ar
    32    16    11   ar
    33     8     1    1
    34     9     3    1
    35    31    26   ar
    36    21    22    1
@<TRIPOS>MOLECULE
*****
 33 36 0 0 0
SMALL
GASTEIGER

@<TRIPOS>ATOM
      1 N         142.9538  138.7993  165.3996 N.3     1  UNL1       -0.2647
      2 C         141.8291  137.9885  164.8273 C.3     1  UNL1        0.1037
      3 C         141.6969  137.8332  163.3413 C.3     1  UNL1        0.1470
      4 C         141.5647  137.6779  161.8552 C.3     1  UNL1        0.1035
      5 N         142.5573  138.3334  160.9414 N.3     1  UNL1       -0.2673
      6 C         143.6821  139.1442  161.5137 C.3     1  UNL1        0.1035
      7 C         143.8143  139.2995  162.9997 C.3     1  UNL1        0.1470
      8 C         143.9464  139.4548  164.4858 C.3     1  UNL1        0.1037
      9 O         142.6895  138.4887  162.4275 O.3     1  UNL1       -0.3530
     10 C         143.0860  138.9546  166.8857 C.3     1  UNL1        0.0993
     11 C         141.2038  142.4790  168.9559 C.ar    1  UNL1        0.0684
     12 C         140.9083  142.2133  167.5095 C.ar    1  UNL1        0.0100
     13 C         141.5357  141.0384  166.8194 C.ar    1  UNL1       -0.0022
     14 C         142.4586  140.1294  167.5757 C.ar    1  UNL1       -0.0061
     15 C         142.7541  140.3953  169.0222 C.ar    1  UNL1       -0.0022
     16 C         142.1267  141.5700  169.7122 C.ar    1  UNL1        0.0100
     17 N         139.9490  144.8287  170.3360 N.1     1  UNL1       -0.1908
     18 C         140.5764  143.6538  169.6459 C.1     1  UNL1        0.1004
     19 C         142.4252  138.1781  159.4553 C.3     1  UNL1        0.0913
     20 C         141.7725  139.2575  158.6435 C.3     1  UNL1        0.1087
     21 N         140.3517  139.6498  158.9215 N.3     1  UNL1       -0.1780
     22 H         139.8362  138.7866  159.0933 H       1  UNL1        0.1488
     23 S         140.0382  140.5753  160.0595 S.O2    1  UNL1        0.0603
     24 O         138.8530  139.7298  160.4205 O.2     1  UNL1       -0.1530
     25 O         141.2234  141.4208  159.6984 O.2     1  UNL1       -0.1530
     26 C         139.7247  141.5009  161.1975 C.ar    1  UNL1        0.1220
     27 C         138.4607  142.3084  161.1811 C.ar    1  UNL1        0.0206
     28 C         138.1472  143.2340  162.3190 C.ar    1  UNL1        0.0116
     29 C         139.0976  143.3520  163.4734 C.ar    1  UNL1        0.0685
     30 C         140.3615  142.5444  163.4899 C.ar    1  UNL1        0.0116
     31 C         140.6751  141.6189  162.3519 C.ar    1  UNL1        0.0206
     32 C         138.7841  144.2776  164.6115 C.1     1  UNL1        0.1004
     33 N         138.4706  145.2031  165.7494 N.1     1  UNL1       -0.1908
@<TRIPOS>BOND
     1    17    18    3
     2    18    11    1
     3    11    12   ar
     4    12    13   ar
     5    13    14   ar
     6    14    10    1
     7    10     1    1
     8     1     2    1
     9     2     3    1
    10     3     4    1
    11     4     5    1
    12     5    19    1
    13    19    20    1
    14    20    21    1
    15    21    23    1
    16    23    24    2
    17    23    25    2
    18    23    26    1
    19    26    27   ar
    20    27    28   ar
    21    28    29   ar
    22    29    32    1
    23    32    33    3
    24    29    30   ar
    25    30    31   ar
    26     5     6    1
    27     6     7    1
    28     7     8    1
    29     7     9    1
    30    14    15   ar
    31    15    16   ar
    32    16    11   ar
    33     8     1    1
    34     9     3    1
    35    31    26   ar
    36    21    22    1
@<TRIPOS>MOLECULE
*****
 33 36 0 0 0
SMALL
GASTEIGER

@<TRIPOS>ATOM
      1 N         139.6735  140.1789  164.3661 N.3     1  UNL1       -0.2647
      2 C         138.5391  141.1427  164.1810 C.3     1  UNL1        0.1037
      3 C         138.2447  141.7020  162.8207 C.3     1  UNL1        0.1470
      4 C         137.9502  142.2615  161.4604 C.3     1  UNL1        0.1035
      5 N         138.7901  141.8570  160.2853 N.3     1  UNL1       -0.2673
      6 C         139.9245  140.8932  160.4704 C.3     1  UNL1        0.1035
      7 C         140.2189  140.3338  161.8307 C.3     1  UNL1        0.1470
      8 C         140.5134  139.7744  163.1909 C.3     1  UNL1        0.1037
      9 O         139.0846  141.2976  161.6456 O.3     1  UNL1       -0.3530
     10 C         139.9680  139.6194  165.7264 C.3     1  UNL1        0.0993
     11 C         142.8826  141.7163  168.4390 C.ar    1  UNL1        0.0684
     12 C         142.1535  142.4896  167.3804 C.ar    1  UNL1        0.0100
     13 C         141.1820  141.7906  166.4762 C.ar    1  UNL1       -0.0022
     14 C         140.9395  140.3184  166.6306 C.ar    1  UNL1       -0.0061
     15 C         141.6686  139.5452  167.6892 C.ar    1  UNL1       -0.0022
     16 C         142.6402  140.2441  168.5933 C.ar    1  UNL1        0.0100
     17 N         144.8257  143.1143  170.2473 N.1     1  UNL1       -0.1908
     18 C         143.8541  142.4153  169.3431 C.1     1  UNL1        0.1004
     19 C         138.4956  142.4164  158.9250 C.3     1  UNL1        0.0913
     20 C         139.4271  143.4172  158.3079 C.3     1  UNL1        0.1087
     21 N         139.7963  144.6614  159.0599 N.3     1  UNL1       -0.1780
     22 H         138.9245  145.0767  159.3881 H       1  UNL1        0.1488
     23 S         140.7096  144.5771  160.2468 S.O2    1  UNL1        0.0603
     24 O         141.7169  143.8354  159.4191 O.2     1  UNL1       -0.1530
     25 O         139.7023  145.3189  161.0745 O.2     1  UNL1       -0.1530
     26 C         141.6229  144.4929  161.4338 C.ar    1  UNL1        0.1220
     27 C         142.8908  143.6959  161.3494 C.ar    1  UNL1        0.0206
     28 C         143.8041  143.6116  162.5363 C.ar    1  UNL1        0.0116
     29 C         143.4494  144.3243  163.8076 C.ar    1  UNL1        0.0685
     30 C         142.1815  145.1213  163.8920 C.ar    1  UNL1        0.0116
     31 C         141.2682  145.2056  162.7051 C.ar    1  UNL1        0.0206
     32 C         144.3627  144.2400  164.9946 C.1     1  UNL1        0.1004
     33 N         145.2759  144.1558  166.1815 N.1     1  UNL1       -0.1908
@<TRIPOS>BOND
     1    17    18    3
     2    18    11    1
     3    11    12   ar
     4    12    13   ar
     5    13    14   ar
     6    14    10    1
     7    10     1    1
     8     1     2    1
     9     2     3    1
    10     3     4    1
    11     4     5    1
    12     5    19    1
    13    19    20    1
    14    20    21    1
    15    21    23    1
    16    23    24    2
    17    23    25    2
    18    23    26    1
    19    26    27   ar
    20    27    28   ar
    21    28    29   ar
    22    29    32    1
    23    32    33    3
    24    29    30   ar
    25    30    31   ar
    26     5     6    1
    27     6     7    1
    28     7     8    1
    29     7     9    1
    30    14    15   ar
    31    15    16   ar
    32    16    11   ar
    33     8     1    1
    34     9     3    1
    35    31    26   ar
    36    21    22    1
@<TRIPOS>MOLECULE
*****
 33 36 0 0 0
SMALL
GASTEIGER

@<TRIPOS>ATOM
      1 N         139.6832  139.4959  166.3617 N.3     1  UNL1       -0.2647
      2 C         138.3788  139.5691  165.6248 C.3     1  UNL1        0.1037
      3 C         138.3200  139.2186  164.1676 C.3     1  UNL1        0.1470
      4 C         138.2611  138.8680  162.7102 C.3     1  UNL1        0.1035
      5 N         139.5067  138.4443  161.9899 N.3     1  UNL1       -0.2673
      6 C         140.8112  138.3710  162.7269 C.3     1  UNL1        0.1035
      7 C         140.8700  138.7216  164.1841 C.3     1  UNL1        0.1470
      8 C         140.9288  139.0721  165.6413 C.3     1  UNL1        0.1037
      9 O         139.5656  138.7948  163.4472 O.3     1  UNL1       -0.3530
     10 C         139.7421  139.8464  167.8190 C.3     1  UNL1        0.0993
     11 C         143.2850  142.0892  169.4524 C.ar    1  UNL1        0.0684
     12 C         142.2735  142.8006  168.6034 C.ar    1  UNL1        0.0100
     13 C         141.0925  142.0530  168.0589 C.ar    1  UNL1       -0.0022
     14 C         140.9230  140.5940  168.3635 C.ar    1  UNL1       -0.0061
     15 C         141.9346  139.8827  169.2125 C.ar    1  UNL1       -0.0022
     16 C         143.1155  140.6302  169.7569 C.ar    1  UNL1        0.0100
     17 N         145.6469  143.5844  170.5413 N.1     1  UNL1       -0.1908
     18 C         144.4659  142.8368  169.9969 C.1     1  UNL1        0.1004
     19 C         139.4478  138.0937  160.5326 C.3     1  UNL1        0.0913
     20 C         140.2441  138.8855  159.5380 C.3     1  UNL1        0.1087
     21 N         139.9567  140.3440  159.3379 N.3     1  UNL1       -0.1780
     22 H         139.1521  140.4026  158.7137 H       1  UNL1        0.1488
     23 S         139.6532  141.2175  160.5189 S.O2    1  UNL1        0.0603
     24 O         138.1981  141.2039  160.1550 O.2     1  UNL1       -0.1530
     25 O         141.1082  141.2311  160.8828 O.2     1  UNL1       -0.1530
     26 C         139.3497  142.0911  161.7000 C.ar    1  UNL1        0.1220
     27 C         140.3159  142.1668  162.8448 C.ar    1  UNL1        0.0206
     28 C         140.0125  143.0402  164.0258 C.ar    1  UNL1        0.0116
     29 C         138.7428  143.8381  164.0620 C.ar    1  UNL1        0.0685
     30 C         137.7765  143.7624  162.9172 C.ar    1  UNL1        0.0116
     31 C         138.0800  142.8889  161.7362 C.ar    1  UNL1        0.0206
     32 C         138.4393  144.7116  165.2431 C.1     1  UNL1        0.1004
     33 N         138.1358  145.5851  166.4241 N.1     1  UNL1       -0.1908
@<TRIPOS>BOND
     1    17    18    3
     2    18    11    1
     3    11    12   ar
     4    12    13   ar
     5    13    14   ar
     6    14    10    1
     7    10     1    1
     8     1     2    1
     9     2     3    1
    10     3     4    1
    11     4     5    1
    12     5    19    1
    13    19    20    1
    14    20    21    1
    15    21    23    1
    16    23    24    2
    17    23    25    2
    18    23    26    1
    19    26    27   ar
    20    27    28   ar
    21    28    29   ar
    22    29    32    1
    23    32    33    3
    24    29    30   ar
    25    30    31   ar
    26     5     6    1
    27     6     7    1
    28     7     8    1
    29     7     9    1
    30    14    15   ar
    31    15    16   ar
    32    16    11   ar
    33     8     1    1
    34     9     3    1
    35    31    26   ar
    36    21    22    1
