@<TRIPOS>MOLECULE
*****
 38 42 0 0 0
SMALL
GASTEIGER

@<TRIPOS>ATOM
      1 N         140.2296  142.2766  160.3271 N.am    1  UNL1       -0.2766
      2 C         139.0054  141.9643  161.1357 C.2     1  UNL1        0.2673
      3 O         137.7892  142.8349  161.0220 O.2     1  UNL1       -0.2682
      4 H         141.0278  141.7052  160.4017 H       1  UNL1        0.1553
      5 C         140.2640  145.2334  155.9525 C.3     1  UNL1        0.1538
      6 N         140.2534  144.8186  157.3939 N.ar    1  UNL1       -0.2459
      7 C         140.2480  143.4085  157.9056 C.ar    1  UNL1        0.1115
      8 C         140.2376  143.4595  159.4047 C.ar    1  UNL1        0.0937
      9 C         140.2365  144.9010  159.8195 C.ar    1  UNL1        0.1690
     10 N         140.2463  145.7410  158.5768 N.ar    1  UNL1       -0.1632
     11 C         140.2272  145.4127  161.2295 C.2     1  UNL1        0.2698
     12 O         139.0910  146.2658  161.7104 O.2     1  UNL1       -0.2681
     13 N         141.3542  145.0712  162.1587 N.am    1  UNL1       -0.2746
     14 C         141.6835  145.3868  163.5877 C.3     1  UNL1        0.0968
     15 C         142.9480  144.5882  163.4727 C.3     1  UNL1        0.0552
     16 C         142.6187  144.2726  162.0437 C.3     1  UNL1        0.0968
     17 C         144.0750  144.2467  164.4018 C.3     1  UNL1        0.0685
     18 N         144.1633  142.8745  165.0011 N.3     1  UNL1       -0.3210
     19 H         143.3735  142.7263  165.6292 H       1  UNL1        0.1189
     20 H         145.0347  142.7873  165.5242 H       1  UNL1        0.1189
     21 C         138.9975  140.7814  162.0581 C.ar    1  UNL1        0.1347
     22 C         138.2515  139.5374  161.6759 C.ar    1  UNL1        0.0238
     23 C         138.2436  138.3545  162.5983 C.ar    1  UNL1        0.0032
     24 C         138.9816  138.4156  163.9027 C.ar    1  UNL1        0.0192
     25 C         139.7275  139.6596  164.2848 C.ar    1  UNL1        0.0816
     26 N         139.7355  140.8425  163.3625 N.ar    1  UNL1       -0.2408
     27 C         140.4655  139.7207  165.5893 C.ar    1  UNL1        0.0220
     28 C         141.9654  139.7078  165.6038 C.ar    1  UNL1        0.0223
     29 C         142.7034  139.7689  166.9083 C.ar    1  UNL1        0.1003
     30 N         141.9415  139.8429  168.1982 N.ar    1  UNL1       -0.2294
     31 C         140.4417  139.8558  168.1837 C.ar    1  UNL1        0.1286
     32 C         139.7037  139.7947  166.8793 C.ar    1  UNL1        0.0356
     33 N         139.6797  139.9298  169.4738 N.pl3   1  UNL1       -0.3181
     34 H         139.4505  139.1039  169.9582 H       1  UNL1        0.1482
     35 C         139.2671  141.2621  170.0257 C.3     1  UNL1        0.0881
     36 C         140.1980  142.4344  169.9303 C.3     1  UNL1        0.0196
     37 C         141.5910  142.9908  169.9357 C.3     1  UNL1        0.0017
     38 C         140.4176  143.9083  169.7596 C.3     1  UNL1        0.0017
@<TRIPOS>BOND
     1     5     6    1
     2     6     7   ar
     3     7     8   ar
     4     8     1    1
     5     1     2   am
     6     2     3    2
     7     2    21    1
     8    21    22   ar
     9    22    23   ar
    10    23    24   ar
    11    24    25   ar
    12    25    27    1
    13    27    28   ar
    14    28    29   ar
    15    29    30   ar
    16    30    31   ar
    17    31    33    1
    18    33    35    1
    19    35    36    1
    20    36    37    1
    21    37    38    1
    22    31    32   ar
    23    25    26   ar
    24     8     9   ar
    25     9    11    1
    26    11    12    2
    27    11    13   am
    28    13    14    1
    29    14    15    1
    30    15    17    1
    31    17    18    1
    32    15    16    1
    33     9    10   ar
    34    10     6   ar
    35    26    21   ar
    36    16    13    1
    37    32    27   ar
    38    38    36    1
    39     1     4    1
    40    33    34    1
    41    18    19    1
    42    18    20    1
@<TRIPOS>MOLECULE
*****
 38 42 0 0 0
SMALL
GASTEIGER

@<TRIPOS>ATOM
      1 N         139.4819  141.7976  161.4534 N.am    1  UNL1       -0.2766
      2 C         138.4298  142.0493  162.4924 C.2     1  UNL1        0.2673
      3 O         137.0204  141.5922  162.2587 O.2     1  UNL1       -0.2682
      4 H         140.4070  142.0976  161.6068 H       1  UNL1        0.1553
      5 C         137.4580  140.7392  156.6926 C.3     1  UNL1        0.1538
      6 N         138.1943  140.6024  157.9922 N.ar    1  UNL1       -0.2459
      7 C         138.2989  141.6499  159.0609 C.ar    1  UNL1        0.1115
      8 C         139.1247  141.0888  160.1805 C.ar    1  UNL1        0.0937
      9 C         139.5304  139.6948  159.8038 C.ar    1  UNL1        0.1690
     10 N         138.9554  139.3941  158.4514 N.ar    1  UNL1       -0.1632
     11 C         140.3646  138.7647  160.6339 C.2     1  UNL1        0.2698
     12 O         141.6733  138.2570  160.1052 O.2     1  UNL1       -0.2681
     13 N         139.8901  138.3422  161.9927 N.am    1  UNL1       -0.2746
     14 C         140.4294  137.4565  163.0766 C.3     1  UNL1        0.0968
     15 C         139.2190  137.7448  163.9144 C.3     1  UNL1        0.0552
     16 C         138.6797  138.6305  162.8305 C.3     1  UNL1        0.0968
     17 C         138.7445  137.3224  165.2732 C.3     1  UNL1        0.0685
     18 N         138.1030  138.3230  166.1882 N.3     1  UNL1       -0.3210
     19 H         138.7906  139.0262  166.4585 H       1  UNL1        0.1189
     20 H         137.7565  137.8483  167.0218 H       1  UNL1        0.1189
     21 C         138.7870  142.7580  163.7653 C.ar    1  UNL1        0.1347
     22 C         138.2643  144.1394  164.0266 C.ar    1  UNL1        0.0238
     23 C         138.6216  144.8481  165.2994 C.ar    1  UNL1        0.0032
     24 C         139.5016  144.1754  166.3109 C.ar    1  UNL1        0.0192
     25 C         140.0243  142.7940  166.0495 C.ar    1  UNL1        0.0816
     26 N         139.6671  142.0853  164.7767 N.ar    1  UNL1       -0.2408
     27 C         140.9044  142.1212  167.0609 C.ar    1  UNL1        0.0220
     28 C         141.0498  142.7050  168.4350 C.ar    1  UNL1        0.0223
     29 C         141.9298  142.0323  169.4464 C.ar    1  UNL1        0.1003
     30 N         142.6644  140.7758  169.0838 N.ar    1  UNL1       -0.2294
     31 C         142.5189  140.1920  167.7098 C.ar    1  UNL1        0.1286
     32 C         141.6389  140.8647  166.6983 C.ar    1  UNL1        0.0356
     33 N         143.2535  138.9354  167.3471 N.pl3   1  UNL1       -0.3181
     34 H         143.8396  138.4998  168.0074 H       1  UNL1        0.1482
     35 C         143.0951  138.3425  165.9784 C.3     1  UNL1        0.0881
     36 C         143.8453  138.9249  164.8174 C.3     1  UNL1        0.0196
     37 C         144.0324  139.0784  163.3370 C.3     1  UNL1        0.0017
     38 C         144.9575  139.7801  164.2867 C.3     1  UNL1        0.0017
@<TRIPOS>BOND
     1     5     6    1
     2     6     7   ar
     3     7     8   ar
     4     8     1    1
     5     1     2   am
     6     2     3    2
     7     2    21    1
     8    21    22   ar
     9    22    23   ar
    10    23    24   ar
    11    24    25   ar
    12    25    27    1
    13    27    28   ar
    14    28    29   ar
    15    29    30   ar
    16    30    31   ar
    17    31    33    1
    18    33    35    1
    19    35    36    1
    20    36    37    1
    21    37    38    1
    22    31    32   ar
    23    25    26   ar
    24     8     9   ar
    25     9    11    1
    26    11    12    2
    27    11    13   am
    28    13    14    1
    29    14    15    1
    30    15    17    1
    31    17    18    1
    32    15    16    1
    33     9    10   ar
    34    10     6   ar
    35    26    21   ar
    36    16    13    1
    37    32    27   ar
    38    38    36    1
    39     1     4    1
    40    33    34    1
    41    18    19    1
    42    18    20    1
@<TRIPOS>MOLECULE
*****
 38 42 0 0 0
SMALL
GASTEIGER

@<TRIPOS>ATOM
      1 N         140.1527  141.8880  161.0358 N.am    1  UNL1       -0.2766
      2 C         138.9591  141.7029  161.9251 C.2     1  UNL1        0.2673
      3 O         137.7205  142.5177  161.6973 O.2     1  UNL1       -0.2682
      4 H         140.9657  141.3532  161.1853 H       1  UNL1        0.1553
      5 C         139.9484  144.0194  156.2091 C.3     1  UNL1        0.1538
      6 N         140.0139  143.8676  157.7000 N.ar    1  UNL1       -0.2459
      7 C         140.0413  142.5711  158.4539 C.ar    1  UNL1        0.1115
      8 C         140.1078  142.8880  159.9186 C.ar    1  UNL1        0.0937
      9 C         140.1214  144.3802  160.0699 C.ar    1  UNL1        0.1690
     10 N         140.0633  144.9857  158.6988 N.ar    1  UNL1       -0.1632
     11 C         140.1823  145.1345  161.3650 C.2     1  UNL1        0.2698
     12 O         139.0868  146.0930  161.7270 O.2     1  UNL1       -0.2681
     13 N         141.3389  144.9303  162.2981 N.am    1  UNL1       -0.2746
     14 C         141.7343  145.4851  163.6345 C.3     1  UNL1        0.0968
     15 C         142.9745  144.6415  163.6178 C.3     1  UNL1        0.0552
     16 C         142.5790  144.0867  162.2814 C.3     1  UNL1        0.0968
     17 C         144.1310  144.4372  164.5509 C.3     1  UNL1        0.0685
     18 N         144.1824  143.2204  165.4264 N.3     1  UNL1       -0.3210
     19 H         143.4208  143.2566  166.1039 H       1  UNL1        0.1189
     20 H         145.0750  143.1936  165.9193 H       1  UNL1        0.1189
     21 C         139.0041  140.7029  163.0423 C.ar    1  UNL1        0.1347
     22 C         138.8213  139.2431  162.7500 C.ar    1  UNL1        0.0238
     23 C         138.8663  138.2432  163.8672 C.ar    1  UNL1        0.0032
     24 C         139.0940  138.7031  165.2767 C.ar    1  UNL1        0.0192
     25 C         139.2768  140.1629  165.5690 C.ar    1  UNL1        0.0816
     26 N         139.2318  141.1628  164.4518 N.ar    1  UNL1       -0.2408
     27 C         139.5045  140.6228  166.9785 C.ar    1  UNL1        0.0220
     28 C         140.3506  141.8323  167.2453 C.ar    1  UNL1        0.0223
     29 C         140.5783  142.2922  168.6547 C.ar    1  UNL1        0.1003
     30 N         139.9599  141.5427  169.7974 N.ar    1  UNL1       -0.2294
     31 C         139.1138  140.3333  169.5306 C.ar    1  UNL1        0.1286
     32 C         138.8861  139.8733  168.1211 C.ar    1  UNL1        0.0356
     33 N         138.4953  139.5837  170.6733 N.pl3   1  UNL1       -0.3181
     34 H         139.0670  139.1969  171.3753 H       1  UNL1        0.1482
     35 C         137.0057  139.4233  170.7464 C.3     1  UNL1        0.0881
     36 C         136.4042  138.4247  171.6902 C.3     1  UNL1        0.0196
     37 C         136.5131  137.1535  172.4791 C.3     1  UNL1        0.0017
     38 C         135.2537  137.9661  172.5363 C.3     1  UNL1        0.0017
@<TRIPOS>BOND
     1     5     6    1
     2     6     7   ar
     3     7     8   ar
     4     8     1    1
     5     1     2   am
     6     2     3    2
     7     2    21    1
     8    21    22   ar
     9    22    23   ar
    10    23    24   ar
    11    24    25   ar
    12    25    27    1
    13    27    28   ar
    14    28    29   ar
    15    29    30   ar
    16    30    31   ar
    17    31    33    1
    18    33    35    1
    19    35    36    1
    20    36    37    1
    21    37    38    1
    22    31    32   ar
    23    25    26   ar
    24     8     9   ar
    25     9    11    1
    26    11    12    2
    27    11    13   am
    28    13    14    1
    29    14    15    1
    30    15    17    1
    31    17    18    1
    32    15    16    1
    33     9    10   ar
    34    10     6   ar
    35    26    21   ar
    36    16    13    1
    37    32    27   ar
    38    38    36    1
    39     1     4    1
    40    33    34    1
    41    18    19    1
    42    18    20    1
@<TRIPOS>MOLECULE
*****
 38 42 0 0 0
SMALL
GASTEIGER

@<TRIPOS>ATOM
      1 N         141.2491  144.1538  159.8172 N.am    1  UNL1       -0.2766
      2 C         140.7853  144.7075  161.1318 C.2     1  UNL1        0.2673
      3 O         139.5920  145.6148  161.1844 O.2     1  UNL1       -0.2682
      4 H         142.0324  143.5583  159.7827 H       1  UNL1        0.1553
      5 C         139.2297  146.9017  155.7859 C.3     1  UNL1        0.1538
      6 N         139.5914  145.7705  156.7021 N.ar    1  UNL1       -0.2459
      7 C         140.4053  145.8785  157.9575 C.ar    1  UNL1        0.1115
      8 C         140.5196  144.5074  158.5551 C.ar    1  UNL1        0.0937
      9 C         139.7764  143.5521  157.6691 C.ar    1  UNL1        0.1690
     10 N         139.2027  144.3327  156.5239 N.ar    1  UNL1       -0.1632
     11 C         139.6323  142.0754  157.8897 C.2     1  UNL1        0.2698
     12 O         140.0834  141.1116  156.8326 O.2     1  UNL1       -0.2681
     13 N         139.0369  141.5625  159.1674 N.am    1  UNL1       -0.2746
     14 C         138.7412  140.2036  159.7294 C.3     1  UNL1        0.0968
     15 C         138.1950  140.8373  160.9744 C.3     1  UNL1        0.0552
     16 C         138.4906  142.1963  160.4124 C.3     1  UNL1        0.0968
     17 C         137.5996  140.3245  162.2521 C.3     1  UNL1        0.0685
     18 N         136.8538  141.2574  163.1595 N.3     1  UNL1       -0.3210
     19 H         137.4985  141.9513  163.5380 H       1  UNL1        0.1189
     20 H         136.4375  140.7269  163.9248 H       1  UNL1        0.1189
     21 C         141.5149  144.3539  162.3939 C.ar    1  UNL1        0.1347
     22 C         142.8922  144.8943  162.6406 C.ar    1  UNL1        0.0238
     23 C         143.6216  144.5406  163.9027 C.ar    1  UNL1        0.0032
     24 C         142.9738  143.6466  164.9180 C.ar    1  UNL1        0.0192
     25 C         141.5964  143.1062  164.6713 C.ar    1  UNL1        0.0816
     26 N         140.8670  143.4598  163.4093 N.ar    1  UNL1       -0.2408
     27 C         140.9486  142.2122  165.6867 C.ar    1  UNL1        0.0220
     28 C         141.3818  142.2695  167.1216 C.ar    1  UNL1        0.0223
     29 C         140.7339  141.3754  168.1370 C.ar    1  UNL1        0.1003
     30 N         139.6528  140.4241  167.7174 N.ar    1  UNL1       -0.2294
     31 C         139.2196  140.3668  166.2825 C.ar    1  UNL1        0.1286
     32 C         139.8675  141.2608  165.2672 C.ar    1  UNL1        0.0356
     33 N         138.1384  139.4154  165.8629 N.pl3   1  UNL1       -0.3181
     34 H         137.2095  139.7310  165.7811 H       1  UNL1        0.1482
     35 C         138.4726  137.9831  165.5681 C.3     1  UNL1        0.0881
     36 C         139.6144  137.6524  164.6532 C.3     1  UNL1        0.0196
     37 C         140.1916  137.5778  163.2707 C.3     1  UNL1        0.0017
     38 C         141.0147  137.1542  164.4510 C.3     1  UNL1        0.0017
@<TRIPOS>BOND
     1     5     6    1
     2     6     7   ar
     3     7     8   ar
     4     8     1    1
     5     1     2   am
     6     2     3    2
     7     2    21    1
     8    21    22   ar
     9    22    23   ar
    10    23    24   ar
    11    24    25   ar
    12    25    27    1
    13    27    28   ar
    14    28    29   ar
    15    29    30   ar
    16    30    31   ar
    17    31    33    1
    18    33    35    1
    19    35    36    1
    20    36    37    1
    21    37    38    1
    22    31    32   ar
    23    25    26   ar
    24     8     9   ar
    25     9    11    1
    26    11    12    2
    27    11    13   am
    28    13    14    1
    29    14    15    1
    30    15    17    1
    31    17    18    1
    32    15    16    1
    33     9    10   ar
    34    10     6   ar
    35    26    21   ar
    36    16    13    1
    37    32    27   ar
    38    38    36    1
    39     1     4    1
    40    33    34    1
    41    18    19    1
    42    18    20    1
@<TRIPOS>MOLECULE
*****
 38 42 0 0 0
SMALL
GASTEIGER

@<TRIPOS>ATOM
      1 N         141.0422  141.0841  165.7711 N.am    1  UNL1       -0.2766
      2 C         142.2926  140.3475  165.3919 C.2     1  UNL1        0.2673
      3 O         142.6226  139.0411  166.0510 O.2     1  UNL1       -0.2682
      4 H         140.8256  141.9415  165.3385 H       1  UNL1        0.1553
      5 C         138.5637  140.2147  170.3518 C.3     1  UNL1        0.1538
      6 N         138.9824  140.1146  168.9149 N.ar    1  UNL1       -0.2459
      7 C         140.0293  140.9515  168.2412 C.ar    1  UNL1        0.1115
      8 C         140.1216  140.5142  166.8094 C.ar    1  UNL1        0.0937
      9 C         139.1319  139.4071  166.5980 C.ar    1  UNL1        0.1690
     10 N         138.4278  139.1601  167.8993 N.ar    1  UNL1       -0.1632
     11 C         138.8889  138.6754  165.3114 C.2     1  UNL1        0.2698
     12 O         138.9374  137.1766  165.2801 O.2     1  UNL1       -0.2681
     13 N         138.5975  139.4427  164.0558 N.am    1  UNL1       -0.2746
     14 C         138.3120  139.0747  162.6299 C.3     1  UNL1        0.0968
     15 C         138.1854  140.5278  162.2802 C.3     1  UNL1        0.0552
     16 C         138.4709  140.8959  163.7060 C.3     1  UNL1        0.0968
     17 C         137.8940  141.2951  161.0247 C.3     1  UNL1        0.0685
     18 N         138.8763  141.2798  159.8912 N.3     1  UNL1       -0.3210
     19 H         139.7363  141.7458  160.1803 H       1  UNL1        0.1189
     20 H         138.4779  141.7683  159.0894 H       1  UNL1        0.1189
     21 C         143.2132  140.9173  164.3537 C.ar    1  UNL1        0.1347
     22 C         144.6938  140.7052  164.4664 C.ar    1  UNL1        0.0238
     23 C         145.6143  141.2751  163.4282 C.ar    1  UNL1        0.0032
     24 C         145.0541  142.0570  162.2772 C.ar    1  UNL1        0.0192
     25 C         143.5735  142.2691  162.1644 C.ar    1  UNL1        0.0816
     26 N         142.6530  141.6993  163.2027 N.ar    1  UNL1       -0.2408
     27 C         143.0134  143.0511  161.0134 C.ar    1  UNL1        0.0220
     28 C         143.6344  142.9325  159.6532 C.ar    1  UNL1        0.0223
     29 C         143.0743  143.7144  158.5022 C.ar    1  UNL1        0.1003
     30 N         141.8931  144.6149  158.7114 N.ar    1  UNL1       -0.2294
     31 C         141.2720  144.7335  160.0716 C.ar    1  UNL1        0.1286
     32 C         141.8321  143.9515  161.2226 C.ar    1  UNL1        0.0356
     33 N         140.0907  145.6340  160.2809 N.pl3   1  UNL1       -0.3181
     34 H         139.5198  145.8823  159.5182 H       1  UNL1        0.1482
     35 C         139.7793  146.1562  161.6521 C.3     1  UNL1        0.0881
     36 C         139.1014  145.2711  162.6556 C.3     1  UNL1        0.0196
     37 C         137.9083  144.4693  163.0842 C.3     1  UNL1        0.0017
     38 C         139.1203  144.5399  163.9652 C.3     1  UNL1        0.0017
@<TRIPOS>BOND
     1     5     6    1
     2     6     7   ar
     3     7     8   ar
     4     8     1    1
     5     1     2   am
     6     2     3    2
     7     2    21    1
     8    21    22   ar
     9    22    23   ar
    10    23    24   ar
    11    24    25   ar
    12    25    27    1
    13    27    28   ar
    14    28    29   ar
    15    29    30   ar
    16    30    31   ar
    17    31    33    1
    18    33    35    1
    19    35    36    1
    20    36    37    1
    21    37    38    1
    22    31    32   ar
    23    25    26   ar
    24     8     9   ar
    25     9    11    1
    26    11    12    2
    27    11    13   am
    28    13    14    1
    29    14    15    1
    30    15    17    1
    31    17    18    1
    32    15    16    1
    33     9    10   ar
    34    10     6   ar
    35    26    21   ar
    36    16    13    1
    37    32    27   ar
    38    38    36    1
    39     1     4    1
    40    33    34    1
    41    18    19    1
    42    18    20    1
@<TRIPOS>MOLECULE
*****
 38 42 0 0 0
SMALL
GASTEIGER

@<TRIPOS>ATOM
      1 N         142.1239  142.1019  160.0727 N.am    1  UNL1       -0.2766
      2 C         142.4888  143.0878  161.1427 C.2     1  UNL1        0.2673
      3 O         143.8461  143.7263  161.1430 O.2     1  UNL1       -0.2682
      4 H         141.2331  141.6828  160.0725 H       1  UNL1        0.1553
      5 C         145.3375  142.4549  155.8979 C.3     1  UNL1        0.1538
      6 N         144.5935  141.9168  157.0840 N.ar    1  UNL1       -0.2459
      7 C         143.6186  142.6779  157.9328 C.ar    1  UNL1        0.1115
      8 C         143.1164  141.7545  159.0029 C.ar    1  UNL1        0.0937
      9 C         143.7808  140.4228  158.8155 C.ar    1  UNL1        0.1690
     10 N         144.6937  140.5231  157.6296 N.ar    1  UNL1       -0.1632
     11 C         143.5694  139.2047  159.6650 C.2     1  UNL1        0.2698
     12 O         143.0475  137.9412  159.0477 O.2     1  UNL1       -0.2681
     13 N         143.8800  139.2502  161.1318 N.am    1  UNL1       -0.2746
     14 C         143.8002  138.2693  162.2638 C.3     1  UNL1        0.0968
     15 C         144.3191  139.3146  163.2062 C.3     1  UNL1        0.0552
     16 C         144.3989  140.2955  162.0742 C.3     1  UNL1        0.0968
     17 C         144.6297  139.3601  164.6730 C.3     1  UNL1        0.0685
     18 N         143.6074  139.8790  165.6403 N.3     1  UNL1       -0.3210
     19 H         143.4497  140.8719  165.4683 H       1  UNL1        0.1189
     20 H         143.9447  139.7484  166.5940 H       1  UNL1        0.1189
     21 C         141.4963  143.4352  162.2125 C.ar    1  UNL1        0.1347
     22 C         140.7254  144.7194  162.1319 C.ar    1  UNL1        0.0238
     23 C         139.7330  145.0667  163.2016 C.ar    1  UNL1        0.0032
     24 C         139.5114  144.1299  164.3519 C.ar    1  UNL1        0.0192
     25 C         140.2823  142.8457  164.4325 C.ar    1  UNL1        0.0816
     26 N         141.2747  142.4984  163.3628 N.ar    1  UNL1       -0.2408
     27 C         140.0608  141.9089  165.5829 C.ar    1  UNL1        0.0220
     28 C         140.7677  142.1403  166.8854 C.ar    1  UNL1        0.0223
     29 C         140.5462  141.2034  168.0357 C.ar    1  UNL1        0.1003
     30 N         139.6177  140.0352  167.8835 N.ar    1  UNL1       -0.2294
     31 C         138.9107  139.8039  166.5810 C.ar    1  UNL1        0.1286
     32 C         139.1323  140.7407  165.4307 C.ar    1  UNL1        0.0356
     33 N         137.9822  138.6357  166.4287 N.pl3   1  UNL1       -0.3181
     34 H         137.1100  138.6373  166.8854 H       1  UNL1        0.1482
     35 C         138.3825  137.4650  165.5806 C.3     1  UNL1        0.0881
     36 C         139.6508  137.5167  164.7814 C.3     1  UNL1        0.0196
     37 C         141.1496  137.5281  164.7225 C.3     1  UNL1        0.0017
     38 C         140.3487  137.5949  163.4560 C.3     1  UNL1        0.0017
@<TRIPOS>BOND
     1     5     6    1
     2     6     7   ar
     3     7     8   ar
     4     8     1    1
     5     1     2   am
     6     2     3    2
     7     2    21    1
     8    21    22   ar
     9    22    23   ar
    10    23    24   ar
    11    24    25   ar
    12    25    27    1
    13    27    28   ar
    14    28    29   ar
    15    29    30   ar
    16    30    31   ar
    17    31    33    1
    18    33    35    1
    19    35    36    1
    20    36    37    1
    21    37    38    1
    22    31    32   ar
    23    25    26   ar
    24     8     9   ar
    25     9    11    1
    26    11    12    2
    27    11    13   am
    28    13    14    1
    29    14    15    1
    30    15    17    1
    31    17    18    1
    32    15    16    1
    33     9    10   ar
    34    10     6   ar
    35    26    21   ar
    36    16    13    1
    37    32    27   ar
    38    38    36    1
    39     1     4    1
    40    33    34    1
    41    18    19    1
    42    18    20    1
@<TRIPOS>MOLECULE
*****
 38 42 0 0 0
SMALL
GASTEIGER

@<TRIPOS>ATOM
      1 N         140.4454  142.6040  161.0260 N.am    1  UNL1       -0.2766
      2 C         139.2123  143.0641  161.7456 C.2     1  UNL1        0.2673
      3 O         137.9171  143.2018  161.0016 O.2     1  UNL1       -0.2682
      4 H         141.2954  142.5136  161.5143 H       1  UNL1        0.1553
      5 C         141.1412  142.8432  155.7972 C.3     1  UNL1        0.1538
      6 N         140.7031  142.3916  157.1589 N.ar    1  UNL1       -0.2459
      7 C         141.0189  143.0727  158.4576 C.ar    1  UNL1        0.1115
      8 C         140.3832  142.2817  159.5623 C.ar    1  UNL1        0.0937
      9 C         139.6746  141.1119  158.9464 C.ar    1  UNL1        0.1690
     10 N         139.8723  141.1798  157.4610 N.ar    1  UNL1       -0.1632
     11 C         138.9037  140.0590  159.6860 C.2     1  UNL1        0.2698
     12 O         137.4501  139.8434  159.3852 O.2     1  UNL1       -0.2681
     13 N         139.5864  139.2216  160.7266 N.am    1  UNL1       -0.2746
     14 C         139.1610  138.1116  161.6415 C.3     1  UNL1        0.0968
     15 C         140.5520  138.0374  162.1981 C.3     1  UNL1        0.0552
     16 C         140.9773  139.1473  161.2831 C.3     1  UNL1        0.0968
     17 C         141.2348  137.2000  163.2386 C.3     1  UNL1        0.0685
     18 N         140.7748  137.2543  164.6653 N.3     1  UNL1       -0.3210
     19 H         140.9575  138.1826  165.0464 H       1  UNL1        0.1189
     20 H         141.2797  136.5568  165.2121 H       1  UNL1        0.1189
     21 C         139.2745  143.3864  163.2093 C.ar    1  UNL1        0.1347
     22 C         138.5030  144.5517  163.7540 C.ar    1  UNL1        0.0238
     23 C         138.5651  144.8740  165.2176 C.ar    1  UNL1        0.0032
     24 C         139.3988  144.0310  166.1365 C.ar    1  UNL1        0.0192
     25 C         140.1702  142.8657  165.5918 C.ar    1  UNL1        0.0816
     26 N         140.1081  142.5434  164.1282 N.ar    1  UNL1       -0.2408
     27 C         141.0039  142.0226  166.5107 C.ar    1  UNL1        0.0220
     28 C         141.3101  142.5033  167.8981 C.ar    1  UNL1        0.0223
     29 C         142.1438  141.6602  168.8170 C.ar    1  UNL1        0.1003
     30 N         142.6711  140.3365  168.3484 N.ar    1  UNL1       -0.2294
     31 C         142.3648  139.8558  166.9610 C.ar    1  UNL1        0.1286
     32 C         141.5312  140.6989  166.0421 C.ar    1  UNL1        0.0356
     33 N         142.8922  138.5320  166.4923 N.pl3   1  UNL1       -0.3181
     34 H         142.3645  137.7133  166.6356 H       1  UNL1        0.1482
     35 C         144.2235  138.4557  165.8054 C.3     1  UNL1        0.0881
     36 C         144.5131  139.3421  164.6304 C.3     1  UNL1        0.0196
     37 C         144.3987  139.6331  163.1634 C.3     1  UNL1        0.0017
     38 C         145.1289  140.5862  164.0624 C.3     1  UNL1        0.0017
@<TRIPOS>BOND
     1     5     6    1
     2     6     7   ar
     3     7     8   ar
     4     8     1    1
     5     1     2   am
     6     2     3    2
     7     2    21    1
     8    21    22   ar
     9    22    23   ar
    10    23    24   ar
    11    24    25   ar
    12    25    27    1
    13    27    28   ar
    14    28    29   ar
    15    29    30   ar
    16    30    31   ar
    17    31    33    1
    18    33    35    1
    19    35    36    1
    20    36    37    1
    21    37    38    1
    22    31    32   ar
    23    25    26   ar
    24     8     9   ar
    25     9    11    1
    26    11    12    2
    27    11    13   am
    28    13    14    1
    29    14    15    1
    30    15    17    1
    31    17    18    1
    32    15    16    1
    33     9    10   ar
    34    10     6   ar
    35    26    21   ar
    36    16    13    1
    37    32    27   ar
    38    38    36    1
    39     1     4    1
    40    33    34    1
    41    18    19    1
    42    18    20    1
@<TRIPOS>MOLECULE
*****
 38 42 0 0 0
SMALL
GASTEIGER

@<TRIPOS>ATOM
      1 N         140.8503  143.4534  161.9417 N.am    1  UNL1       -0.2766
      2 C         142.2645  143.6148  162.4149 C.2     1  UNL1        0.2673
      3 O         143.3113  144.1477  161.4821 O.2     1  UNL1       -0.2682
      4 H         140.1632  143.1037  162.5540 H       1  UNL1        0.1553
      5 C         140.0451  146.2442  157.5321 C.3     1  UNL1        0.1538
      6 N         140.1127  145.1078  158.5088 N.ar    1  UNL1       -0.2459
      7 C         140.5829  145.1939  159.9307 C.ar    1  UNL1        0.1115
      8 C         140.4828  143.8249  160.5356 C.ar    1  UNL1        0.0937
      9 C         139.9510  142.8927  159.4877 C.ar    1  UNL1        0.1690
     10 N         139.7222  143.6855  158.2350 N.ar    1  UNL1       -0.1632
     11 C         139.6931  141.4254  159.6619 C.2     1  UNL1        0.2698
     12 O         138.2902  140.8980  159.6016 O.2     1  UNL1       -0.2681
     13 N         140.8382  140.4853  159.8965 N.am    1  UNL1       -0.2746
     14 C         140.9700  139.0063  160.1089 C.3     1  UNL1        0.0968
     15 C         142.4577  139.1560  160.2282 C.3     1  UNL1        0.0552
     16 C         142.3260  140.6350  160.0159 C.3     1  UNL1        0.0968
     17 C         143.6029  138.2160  160.4628 C.3     1  UNL1        0.0685
     18 N         144.3880  138.2940  161.7385 N.3     1  UNL1       -0.3210
     19 H         144.8864  139.1831  161.7772 H       1  UNL1        0.1189
     20 H         145.0589  137.5265  161.7723 H       1  UNL1        0.1189
     21 C         142.6319  143.2433  163.8210 C.ar    1  UNL1        0.1347
     22 C         143.9773  143.6176  164.3685 C.ar    1  UNL1        0.0238
     23 C         144.3446  143.2461  165.7745 C.ar    1  UNL1        0.0032
     24 C         143.3666  142.5003  166.6331 C.ar    1  UNL1        0.0192
     25 C         142.0212  142.1260  166.0856 C.ar    1  UNL1        0.0816
     26 N         141.6538  142.4975  164.6796 N.ar    1  UNL1       -0.2408
     27 C         141.0432  141.3802  166.9442 C.ar    1  UNL1        0.0220
     28 C         141.0456  141.5799  168.4308 C.ar    1  UNL1        0.0223
     29 C         140.0676  140.8341  169.2894 C.ar    1  UNL1        0.1003
     30 N         139.0871  139.8885  168.6614 N.ar    1  UNL1       -0.2294
     31 C         139.0846  139.6887  167.1748 C.ar    1  UNL1        0.1286
     32 C         140.0627  140.4346  166.3162 C.ar    1  UNL1        0.0356
     33 N         138.1041  138.7431  166.5467 N.pl3   1  UNL1       -0.3181
     34 H         137.1424  138.8330  166.7371 H       1  UNL1        0.1482
     35 C         138.5890  137.6605  165.6287 C.3     1  UNL1        0.0881
     36 C         138.7779  137.9446  164.1680 C.3     1  UNL1        0.0196
     37 C         139.3549  137.5684  162.8355 C.3     1  UNL1        0.0017
     38 C         138.5282  138.8127  162.9706 C.3     1  UNL1        0.0017
@<TRIPOS>BOND
     1     5     6    1
     2     6     7   ar
     3     7     8   ar
     4     8     1    1
     5     1     2   am
     6     2     3    2
     7     2    21    1
     8    21    22   ar
     9    22    23   ar
    10    23    24   ar
    11    24    25   ar
    12    25    27    1
    13    27    28   ar
    14    28    29   ar
    15    29    30   ar
    16    30    31   ar
    17    31    33    1
    18    33    35    1
    19    35    36    1
    20    36    37    1
    21    37    38    1
    22    31    32   ar
    23    25    26   ar
    24     8     9   ar
    25     9    11    1
    26    11    12    2
    27    11    13   am
    28    13    14    1
    29    14    15    1
    30    15    17    1
    31    17    18    1
    32    15    16    1
    33     9    10   ar
    34    10     6   ar
    35    26    21   ar
    36    16    13    1
    37    32    27   ar
    38    38    36    1
    39     1     4    1
    40    33    34    1
    41    18    19    1
    42    18    20    1
@<TRIPOS>MOLECULE
*****
 38 42 0 0 0
SMALL
GASTEIGER

@<TRIPOS>ATOM
      1 N         140.2449  142.9810  160.8193 N.am    1  UNL1       -0.2766
      2 C         139.1976  143.1488  161.8799 C.2     1  UNL1        0.2673
      3 O         137.7802  143.4512  161.4932 O.2     1  UNL1       -0.2682
      4 H         141.1752  142.7825  161.0732 H       1  UNL1        0.1553
      5 C         139.6618  144.9254  155.9449 C.3     1  UNL1        0.1538
      6 N         139.6068  144.0094  157.1313 N.ar    1  UNL1       -0.2459
      7 C         140.1450  144.3057  158.4998 C.ar    1  UNL1        0.1115
      8 C         139.8748  143.1155  159.3719 C.ar    1  UNL1        0.0937
      9 C         139.1697  142.0836  158.5425 C.ar    1  UNL1        0.1690
     10 N         139.0040  142.6360  157.1578 N.ar    1  UNL1       -0.1632
     11 C         138.7108  140.7360  159.0149 C.2     1  UNL1        0.2698
     12 O         137.3160  140.2717  158.7169 O.2     1  UNL1       -0.2681
     13 N         139.6468  139.8526  159.7854 N.am    1  UNL1       -0.2746
     14 C         139.5518  138.4882  160.4014 C.3     1  UNL1        0.0968
     15 C         140.9705  138.6033  160.8750 C.3     1  UNL1        0.0552
     16 C         141.0654  139.9677  160.2590 C.3     1  UNL1        0.0968
     17 C         141.9065  137.7200  161.6455 C.3     1  UNL1        0.0685
     18 N         141.3808  136.8550  162.7525 N.3     1  UNL1       -0.3210
     19 H         141.0389  137.4445  163.5114 H       1  UNL1        0.1189
     20 H         142.1289  136.2544  163.0991 H       1  UNL1        0.1189
     21 C         139.5676  143.0142  163.3274 C.ar    1  UNL1        0.1347
     22 C         139.0262  143.9862  164.3334 C.ar    1  UNL1        0.0238
     23 C         139.3963  143.8516  165.7808 C.ar    1  UNL1        0.0032
     24 C         140.3077  142.7450  166.2221 C.ar    1  UNL1        0.0192
     25 C         140.8491  141.7730  165.2161 C.ar    1  UNL1        0.0816
     26 N         140.4790  141.9076  163.7687 N.ar    1  UNL1       -0.2408
     27 C         141.7605  140.6665  165.6574 C.ar    1  UNL1        0.0220
     28 C         142.5320  139.8794  164.6399 C.ar    1  UNL1        0.0223
     29 C         143.4434  138.7728  165.0812 C.ar    1  UNL1        0.1003
     30 N         143.5834  138.4533  166.5401 N.ar    1  UNL1       -0.2294
     31 C         142.8120  139.2404  167.5576 C.ar    1  UNL1        0.1286
     32 C         141.9005  140.3469  167.1162 C.ar    1  UNL1        0.0356
     33 N         142.9519  138.9209  169.0165 N.pl3   1  UNL1       -0.3181
     34 H         143.3224  138.0529  169.2970 H       1  UNL1        0.1482
     35 C         142.5275  139.9238  170.0480 C.3     1  UNL1        0.0881
     36 C         142.9387  141.3599  169.9116 C.3     1  UNL1        0.0196
     37 C         142.5736  142.8072  169.7640 C.3     1  UNL1        0.0017
     38 C         144.0159  142.3998  169.8228 C.3     1  UNL1        0.0017
@<TRIPOS>BOND
     1     5     6    1
     2     6     7   ar
     3     7     8   ar
     4     8     1    1
     5     1     2   am
     6     2     3    2
     7     2    21    1
     8    21    22   ar
     9    22    23   ar
    10    23    24   ar
    11    24    25   ar
    12    25    27    1
    13    27    28   ar
    14    28    29   ar
    15    29    30   ar
    16    30    31   ar
    17    31    33    1
    18    33    35    1
    19    35    36    1
    20    36    37    1
    21    37    38    1
    22    31    32   ar
    23    25    26   ar
    24     8     9   ar
    25     9    11    1
    26    11    12    2
    27    11    13   am
    28    13    14    1
    29    14    15    1
    30    15    17    1
    31    17    18    1
    32    15    16    1
    33     9    10   ar
    34    10     6   ar
    35    26    21   ar
    36    16    13    1
    37    32    27   ar
    38    38    36    1
    39     1     4    1
    40    33    34    1
    41    18    19    1
    42    18    20    1
