@<TRIPOS>MOLECULE
*****
 23 25 0 0 0
SMALL
GASTEIGER

@<TRIPOS>ATOM
      1 O         138.1376  139.1262  167.8197 O.2     1  UNL1       -0.2695
      2 C         139.1967  139.5605  166.8502 C.2     1  UNL1        0.2535
      3 N         140.3281  140.4289  167.3147 N.am    1  UNL1       -0.2555
      4 C         139.1242  139.1265  165.4162 C.ar    1  UNL1        0.0653
      5 C         139.7144  137.8119  164.9997 C.ar    1  UNL1        0.0054
      6 C         139.6419  137.3778  163.5657 C.ar    1  UNL1        0.0011
      7 C         138.9793  138.2584  162.5482 C.ar    1  UNL1        0.0123
      8 C         138.3890  139.5731  162.9646 C.ar    1  UNL1        0.0683
      9 CL        137.7264  140.4536  161.9470 Cl      1  UNL1       -0.0814
     10 C         138.4615  140.0071  164.3986 C.ar    1  UNL1        0.0726
     11 CL        137.8713  141.3217  164.8150 Cl      1  UNL1       -0.0812
     12 C         140.4005  140.8629  168.7487 C.2     1  UNL1        0.0565
     13 C         140.0621  142.2755  169.1227 C.2     1  UNL1        0.0357
     14 C         140.1346  142.7096  170.5567 C.3     1  UNL1        0.2332
     15 O         140.5455  141.7310  171.6167 O.2     1  UNL1       -0.4675
     16 C         140.8839  140.3183  171.2426 C.2     1  UNL1        0.1740
     17 C         140.8115  139.8843  169.8086 C.2     1  UNL1        0.0547
     18 C         141.3871  140.8632  166.3452 C.3     1  UNL1        0.0971
     19 C         142.6486  140.1176  166.0249 C.3     1  UNL1        0.0387
     20 C         143.4117  140.9130  165.0076 C.3     1  UNL1        0.0704
     21 N         142.6217  142.1503  164.6990 N.3     1  UNL1       -0.2960
     22 C         141.3704  142.1195  165.5258 C.3     1  UNL1        0.0890
     23 H         142.3814  142.1694  163.7079 H       1  UNL1        0.1233
@<TRIPOS>BOND
     1     1     2    2
     2     2     4    1
     3     4     5   ar
     4     5     6   ar
     5     6     7   ar
     6     7     8   ar
     7     8     9    1
     8     8    10   ar
     9    10    11    1
    10     2     3   am
    11     3    12    1
    12    12    13    2
    13    13    14    1
    14    14    15    1
    15    15    16    1
    16    16    17    2
    17    18     3    1
    18    18    19    1
    19    19    20    1
    20    20    21    1
    21    21    22    1
    22    10     4   ar
    23    17    12    1
    24    22    18    1
    25    21    23    1
@<TRIPOS>MOLECULE
*****
 23 25 0 0 0
SMALL
GASTEIGER

@<TRIPOS>ATOM
      1 O         143.2948  138.7204  167.8584 O.2     1  UNL1       -0.2695
      2 C         142.4216  139.4150  166.8558 C.2     1  UNL1        0.2535
      3 N         141.6091  140.6069  167.2671 N.am    1  UNL1       -0.2555
      4 C         142.3609  138.9176  165.4420 C.ar    1  UNL1        0.0653
      5 C         141.3517  137.8772  165.0556 C.ar    1  UNL1        0.0054
      6 C         141.2910  137.3799  163.6418 C.ar    1  UNL1        0.0011
      7 C         142.2394  137.9228  162.6143 C.ar    1  UNL1        0.0123
      8 C         143.2486  138.9632  163.0007 C.ar    1  UNL1        0.0683
      9 CL        144.1970  139.5062  161.9732 Cl      1  UNL1       -0.0814
     10 C         143.3093  139.4606  164.4145 C.ar    1  UNL1        0.0726
     11 CL        144.3184  140.5009  164.8009 Cl      1  UNL1       -0.0812
     12 C         141.6698  141.1042  168.6810 C.2     1  UNL1        0.0565
     13 C         140.8445  140.4430  169.7447 C.2     1  UNL1        0.0357
     14 C         140.9053  140.9404  171.1585 C.3     1  UNL1        0.2332
     15 O         141.7913  142.0990  171.5086 O.2     1  UNL1       -0.4675
     16 C         142.6167  142.7602  170.4448 C.2     1  UNL1        0.1740
     17 C         142.5560  142.2629  169.0310 C.2     1  UNL1        0.0547
     18 C         140.7358  141.3015  166.2646 C.3     1  UNL1        0.0971
     19 C         139.3119  140.9545  165.9453 C.3     1  UNL1        0.0387
     20 C         138.8293  141.9036  164.8887 C.3     1  UNL1        0.0704
     21 N         139.9550  142.8371  164.5550 N.3     1  UNL1       -0.2960
     22 C         141.1334  142.4649  165.4053 C.3     1  UNL1        0.0890
     23 H         139.6768  143.7987  164.7507 H       1  UNL1        0.1233
@<TRIPOS>BOND
     1     1     2    2
     2     2     4    1
     3     4     5   ar
     4     5     6   ar
     5     6     7   ar
     6     7     8   ar
     7     8     9    1
     8     8    10   ar
     9    10    11    1
    10     2     3   am
    11     3    12    1
    12    12    13    2
    13    13    14    1
    14    14    15    1
    15    15    16    1
    16    16    17    2
    17    18     3    1
    18    18    19    1
    19    19    20    1
    20    20    21    1
    21    21    22    1
    22    10     4   ar
    23    17    12    1
    24    22    18    1
    25    21    23    1
@<TRIPOS>MOLECULE
*****
 23 25 0 0 0
SMALL
GASTEIGER

@<TRIPOS>ATOM
      1 O         143.0001  139.1266  167.9493 O.2     1  UNL1       -0.2695
      2 C         142.6609  139.9730  166.7582 C.2     1  UNL1        0.2535
      3 N         142.1007  141.3509  166.9523 N.am    1  UNL1       -0.2555
      4 C         142.8819  139.4415  165.3731 C.ar    1  UNL1        0.0653
      5 C         144.1990  139.6568  164.6884 C.ar    1  UNL1        0.0054
      6 C         144.4200  139.1253  163.3032 C.ar    1  UNL1        0.0011
      7 C         143.3238  138.3786  162.6027 C.ar    1  UNL1        0.0123
      8 C         142.0066  138.1633  163.2874 C.ar    1  UNL1        0.0683
      9 CL        140.9105  137.4165  162.5868 Cl      1  UNL1       -0.0814
     10 C         141.7856  138.6948  164.6725 C.ar    1  UNL1        0.0726
     11 CL        140.4685  138.4795  165.3572 Cl      1  UNL1       -0.0812
     12 C         141.8797  141.8823  168.3375 C.2     1  UNL1        0.0565
     13 C         143.0349  142.4240  169.1261 C.2     1  UNL1        0.0357
     14 C         142.8139  142.9555  170.5113 C.3     1  UNL1        0.2332
     15 O         141.4377  142.9453  171.1078 O.2     1  UNL1       -0.4675
     16 C         140.2824  142.4036  170.3192 C.2     1  UNL1        0.1740
     17 C         140.5034  141.8721  168.9340 C.2     1  UNL1        0.0547
     18 C         141.7614  142.1973  165.7613 C.3     1  UNL1        0.0971
     19 C         142.7038  143.1042  165.0269 C.3     1  UNL1        0.0387
     20 C         141.9450  143.7527  163.9073 C.3     1  UNL1        0.0704
     21 N         140.5336  143.2467  163.9497 N.3     1  UNL1       -0.2960
     22 C         140.4201  142.2853  165.0956 C.3     1  UNL1        0.0890
     23 H         140.3099  142.7711  163.0755 H       1  UNL1        0.1233
@<TRIPOS>BOND
     1     1     2    2
     2     2     4    1
     3     4     5   ar
     4     5     6   ar
     5     6     7   ar
     6     7     8   ar
     7     8     9    1
     8     8    10   ar
     9    10    11    1
    10     2     3   am
    11     3    12    1
    12    12    13    2
    13    13    14    1
    14    14    15    1
    15    15    16    1
    16    16    17    2
    17    18     3    1
    18    18    19    1
    19    19    20    1
    20    20    21    1
    21    21    22    1
    22    10     4   ar
    23    17    12    1
    24    22    18    1
    25    21    23    1
@<TRIPOS>MOLECULE
*****
 23 25 0 0 0
SMALL
GASTEIGER

@<TRIPOS>ATOM
      1 O         138.5028  139.1683  167.6927 O.2     1  UNL1       -0.2695
      2 C         139.2579  139.9545  166.6622 C.2     1  UNL1        0.2535
      3 N         140.4868  140.7197  167.0549 N.am    1  UNL1       -0.2555
      4 C         138.7842  139.9753  165.2392 C.ar    1  UNL1        0.0653
      5 C         137.9611  141.1254  164.7395 C.ar    1  UNL1        0.0054
      6 C         137.4874  141.1463  163.3164 C.ar    1  UNL1        0.0011
      7 C         137.8367  140.0170  162.3930 C.ar    1  UNL1        0.0123
      8 C         138.6598  138.8668  162.8927 C.ar    1  UNL1        0.0683
      9 CL        139.0091  137.7375  161.9693 Cl      1  UNL1       -0.0814
     10 C         139.1335  138.8460  164.3158 C.ar    1  UNL1        0.0726
     11 CL        139.9566  137.6958  164.8155 Cl      1  UNL1       -0.0812
     12 C         140.9606  140.6989  168.4780 C.2     1  UNL1        0.0565
     13 C         140.3078  141.5830  169.4988 C.2     1  UNL1        0.0357
     14 C         140.7816  141.5622  170.9218 C.3     1  UNL1        0.2332
     15 O         141.9081  140.6572  171.3241 O.2     1  UNL1       -0.4675
     16 C         142.5609  139.7729  170.3033 C.2     1  UNL1        0.1740
     17 C         142.0872  139.7938  168.8802 C.2     1  UNL1        0.0547
     18 C         141.2420  141.5059  166.0245 C.3     1  UNL1        0.0971
     19 C         141.0447  142.9579  165.7042 C.3     1  UNL1        0.0387
     20 C         142.0078  143.3274  164.6152 C.3     1  UNL1        0.0704
     21 N         142.8004  142.1037  164.2624 N.3     1  UNL1       -0.2960
     22 C         142.3270  140.9778  165.1334 C.3     1  UNL1        0.0890
     23 H         143.7925  142.2746  164.4264 H       1  UNL1        0.1233
@<TRIPOS>BOND
     1     1     2    2
     2     2     4    1
     3     4     5   ar
     4     5     6   ar
     5     6     7   ar
     6     7     8   ar
     7     8     9    1
     8     8    10   ar
     9    10    11    1
    10     2     3   am
    11     3    12    1
    12    12    13    2
    13    13    14    1
    14    14    15    1
    15    15    16    1
    16    16    17    2
    17    18     3    1
    18    18    19    1
    19    19    20    1
    20    20    21    1
    21    21    22    1
    22    10     4   ar
    23    17    12    1
    24    22    18    1
    25    21    23    1
@<TRIPOS>MOLECULE
*****
 23 25 0 0 0
SMALL
GASTEIGER

@<TRIPOS>ATOM
      1 O         143.2292  142.1449  167.0487 O.2     1  UNL1       -0.2695
      2 C         142.1581  142.5346  166.0734 C.2     1  UNL1        0.2535
      3 N         140.7229  142.5654  166.5084 N.am    1  UNL1       -0.2555
      4 C         142.5224  142.8934  164.6633 C.ar    1  UNL1        0.0653
      5 C         142.9057  144.3032  164.3232 C.ar    1  UNL1        0.0054
      6 C         143.2699  144.6620  162.9131 C.ar    1  UNL1        0.0011
      7 C         143.2508  143.6111  161.8429 C.ar    1  UNL1        0.0123
      8 C         142.8675  142.2013  162.1829 C.ar    1  UNL1        0.0683
      9 CL        142.8484  141.1504  161.1128 Cl      1  UNL1       -0.0814
     10 C         142.5033  141.8425  163.5931 C.ar    1  UNL1        0.0726
     11 CL        142.1199  140.4327  163.9331 Cl      1  UNL1       -0.0812
     12 C         140.3587  142.2066  167.9185 C.2     1  UNL1        0.0565
     13 C         140.4187  143.2476  168.9967 C.2     1  UNL1        0.0357
     14 C         140.0544  142.8888  170.4069 C.3     1  UNL1        0.2332
     15 O         139.6302  141.4889  170.7388 O.2     1  UNL1       -0.4675
     16 C         139.5702  140.4477  169.6606 C.2     1  UNL1        0.1740
     17 C         139.9345  140.8066  168.2505 C.2     1  UNL1        0.0547
     18 C         139.6519  142.9551  165.5331 C.3     1  UNL1        0.0971
     19 C         139.1787  144.3510  165.2544 C.3     1  UNL1        0.0387
     20 C         138.1004  144.2759  164.2144 C.3     1  UNL1        0.0704
     21 N         137.9071  142.8336  163.8503 N.3     1  UNL1       -0.2960
     22 C         138.8661  142.0173  164.6654 C.3     1  UNL1        0.0890
     23 H         138.0955  142.6991  162.8569 H       1  UNL1        0.1233
@<TRIPOS>BOND
     1     1     2    2
     2     2     4    1
     3     4     5   ar
     4     5     6   ar
     5     6     7   ar
     6     7     8   ar
     7     8     9    1
     8     8    10   ar
     9    10    11    1
    10     2     3   am
    11     3    12    1
    12    12    13    2
    13    13    14    1
    14    14    15    1
    15    15    16    1
    16    16    17    2
    17    18     3    1
    18    18    19    1
    19    19    20    1
    20    20    21    1
    21    21    22    1
    22    10     4   ar
    23    17    12    1
    24    22    18    1
    25    21    23    1
@<TRIPOS>MOLECULE
*****
 23 25 0 0 0
SMALL
GASTEIGER

@<TRIPOS>ATOM
      1 O         139.6076  139.9492  168.1012 O.2     1  UNL1       -0.2695
      2 C         140.0765  140.5512  166.8098 C.2     1  UNL1        0.2535
      3 N         140.9265  141.7870  166.8233 N.am    1  UNL1       -0.2555
      4 C         139.6954  139.9172  165.5048 C.ar    1  UNL1        0.0653
      5 C         138.4322  140.3318  164.8102 C.ar    1  UNL1        0.0054
      6 C         138.0511  139.6978  163.5053 C.ar    1  UNL1        0.0011
      7 C         138.9332  138.6493  162.8949 C.ar    1  UNL1        0.0123
      8 C         140.1965  138.2348  163.5895 C.ar    1  UNL1        0.0683
      9 CL        141.0785  137.1863  162.9792 Cl      1  UNL1       -0.0814
     10 C         140.5776  138.8687  164.8945 C.ar    1  UNL1        0.0726
     11 CL        141.8407  138.4542  165.5890 Cl      1  UNL1       -0.0812
     12 C         141.3076  142.4210  168.1282 C.2     1  UNL1        0.0565
     13 C         142.6495  142.1381  168.7358 C.2     1  UNL1        0.0357
     14 C         143.0306  142.7720  170.0408 C.3     1  UNL1        0.2332
     15 O         142.0698  143.6888  170.7381 O.2     1  UNL1       -0.4675
     16 C         140.7278  143.9717  170.1305 C.2     1  UNL1        0.1740
     17 C         140.3467  143.3378  168.8255 C.2     1  UNL1        0.0547
     18 C         141.3954  142.3890  165.5318 C.3     1  UNL1        0.0971
     19 C         140.6931  143.4610  164.7524 C.3     1  UNL1        0.0387
     20 C         141.5126  143.7591  163.5319 C.3     1  UNL1        0.0704
     21 N         142.7214  142.8713  163.5570 N.3     1  UNL1       -0.2960
     22 C         142.6490  142.0244  164.7931 C.3     1  UNL1        0.0890
     23 H         143.5681  143.4398  163.5761 H       1  UNL1        0.1233
@<TRIPOS>BOND
     1     1     2    2
     2     2     4    1
     3     4     5   ar
     4     5     6   ar
     5     6     7   ar
     6     7     8   ar
     7     8     9    1
     8     8    10   ar
     9    10    11    1
    10     2     3   am
    11     3    12    1
    12    12    13    2
    13    13    14    1
    14    14    15    1
    15    15    16    1
    16    16    17    2
    17    18     3    1
    18    18    19    1
    19    19    20    1
    20    20    21    1
    21    21    22    1
    22    10     4   ar
    23    17    12    1
    24    22    18    1
    25    21    23    1
@<TRIPOS>MOLECULE
*****
 23 25 0 0 0
SMALL
GASTEIGER

@<TRIPOS>ATOM
      1 O         142.9706  139.7956  167.8563 O.2     1  UNL1       -0.2695
      2 C         142.3291  140.3401  166.6145 C.2     1  UNL1        0.2535
      3 N         141.0393  141.1001  166.7080 N.am    1  UNL1       -0.2555
      4 C         142.9775  140.1246  165.2791 C.ar    1  UNL1        0.0653
      5 C         142.7126  138.8634  164.5115 C.ar    1  UNL1        0.0054
      6 C         143.3610  138.6480  163.1762 C.ar    1  UNL1        0.0011
      7 C         144.2742  139.6936  162.6084 C.ar    1  UNL1        0.0123
      8 C         144.5392  140.9549  163.3760 C.ar    1  UNL1        0.0683
      9 CL        145.4525  142.0006  162.8082 Cl      1  UNL1       -0.0814
     10 C         143.8908  141.1704  164.7113 C.ar    1  UNL1        0.0726
     11 CL        144.1557  142.4316  165.4789 Cl      1  UNL1       -0.0812
     12 C         140.3909  141.3155  168.0434 C.2     1  UNL1        0.0565
     13 C         140.6080  142.6019  168.7837 C.2     1  UNL1        0.0357
     14 C         139.9596  142.8174  170.1190 C.3     1  UNL1        0.2332
     15 O         139.0942  141.7465  170.7141 O.2     1  UNL1       -0.4675
     16 C         138.8771  140.4600  169.9738 C.2     1  UNL1        0.1740
     17 C         139.5255  140.2446  168.6385 C.2     1  UNL1        0.0547
     18 C         140.3978  141.6446  165.4662 C.3     1  UNL1        0.0971
     19 C         140.5885  143.0233  164.9072 C.3     1  UNL1        0.0387
     20 C         139.7615  143.1367  163.6609 C.3     1  UNL1        0.0704
     21 N         139.0596  141.8280  163.4497 N.3     1  UNL1       -0.2960
     22 C         139.4529  140.9057  164.5655 C.3     1  UNL1        0.0890
     23 H         139.3380  141.4264  162.5543 H       1  UNL1        0.1233
@<TRIPOS>BOND
     1     1     2    2
     2     2     4    1
     3     4     5   ar
     4     5     6   ar
     5     6     7   ar
     6     7     8   ar
     7     8     9    1
     8     8    10   ar
     9    10    11    1
    10     2     3   am
    11     3    12    1
    12    12    13    2
    13    13    14    1
    14    14    15    1
    15    15    16    1
    16    16    17    2
    17    18     3    1
    18    18    19    1
    19    19    20    1
    20    20    21    1
    21    21    22    1
    22    10     4   ar
    23    17    12    1
    24    22    18    1
    25    21    23    1
@<TRIPOS>MOLECULE
*****
 23 25 0 0 0
SMALL
GASTEIGER

@<TRIPOS>ATOM
      1 O         143.4236  142.5851  167.3374 O.2     1  UNL1       -0.2695
      2 C         143.0725  141.7323  166.1544 C.2     1  UNL1        0.2535
      3 N         142.1754  140.5426  166.3272 N.am    1  UNL1       -0.2555
      4 C         143.6186  142.0692  164.7985 C.ar    1  UNL1        0.0653
      5 C         144.9297  141.4922  164.3535 C.ar    1  UNL1        0.0054
      6 C         145.4758  141.8291  162.9977 C.ar    1  UNL1        0.0011
      7 C         144.7108  142.7429  162.0869 C.ar    1  UNL1        0.0123
      8 C         143.3996  143.3199  162.5319 C.ar    1  UNL1        0.0683
      9 CL        142.6346  144.2338  161.6211 Cl      1  UNL1       -0.0814
     10 C         142.8535  142.9831  163.8877 C.ar    1  UNL1        0.0726
     11 CL        141.5424  143.5600  164.3328 Cl      1  UNL1       -0.0812
     12 C         141.6293  140.2058  167.6831 C.2     1  UNL1        0.0565
     13 C         140.2099  140.5483  168.0262 C.2     1  UNL1        0.0357
     14 C         139.6638  140.2114  169.3821 C.3     1  UNL1        0.2332
     15 O         140.5372  139.5320  170.3948 O.2     1  UNL1       -0.4675
     16 C         141.9567  139.1894  170.0516 C.2     1  UNL1        0.1740
     17 C         142.5028  139.5263  168.6958 C.2     1  UNL1        0.0547
     18 C         141.8244  139.6898  165.1442 C.3     1  UNL1        0.0971
     19 C         142.5598  138.4630  164.6924 C.3     1  UNL1        0.0387
     20 C         141.8662  137.9291  163.4742 C.3     1  UNL1        0.0704
     21 N         140.7020  138.8259  163.1732 N.3     1  UNL1       -0.2960
     22 C         140.6762  139.9141  164.2054 C.3     1  UNL1        0.0890
     23 H         139.8342  138.2913  163.2120 H       1  UNL1        0.1233
@<TRIPOS>BOND
     1     1     2    2
     2     2     4    1
     3     4     5   ar
     4     5     6   ar
     5     6     7   ar
     6     7     8   ar
     7     8     9    1
     8     8    10   ar
     9    10    11    1
    10     2     3   am
    11     3    12    1
    12    12    13    2
    13    13    14    1
    14    14    15    1
    15    15    16    1
    16    16    17    2
    17    18     3    1
    18    18    19    1
    19    19    20    1
    20    20    21    1
    21    21    22    1
    22    10     4   ar
    23    17    12    1
    24    22    18    1
    25    21    23    1
@<TRIPOS>MOLECULE
*****
 23 25 0 0 0
SMALL
GASTEIGER

@<TRIPOS>ATOM
      1 O         142.8865  139.0226  167.0957 O.2     1  UNL1       -0.2695
      2 C         141.6782  139.8679  166.8208 C.2     1  UNL1        0.2535
      3 N         141.1906  140.0441  165.4133 N.am    1  UNL1       -0.2555
      4 C         140.9574  140.5369  167.9535 C.ar    1  UNL1        0.0653
      5 C         139.7672  139.8739  168.5809 C.ar    1  UNL1        0.0054
      6 C         139.0464  140.5429  169.7136 C.ar    1  UNL1        0.0011
      7 C         139.5160  141.8749  170.2189 C.ar    1  UNL1        0.0123
      8 C         140.7064  142.5379  169.5915 C.ar    1  UNL1        0.0683
      9 CL        141.1759  143.8698  170.0968 Cl      1  UNL1       -0.0814
     10 C         141.4271  141.8689  168.4588 C.ar    1  UNL1        0.0726
     11 CL        142.6174  142.5318  167.8314 Cl      1  UNL1       -0.0812
     12 C         141.9113  139.3751  164.2806 C.2     1  UNL1        0.0565
     13 C         143.2804  139.8413  163.8832 C.2     1  UNL1        0.0357
     14 C         144.0011  139.1724  162.7505 C.3     1  UNL1        0.2332
     15 O         143.3527  138.0371  162.0152 O.2     1  UNL1       -0.4675
     16 C         141.9835  137.5708  162.4126 C.2     1  UNL1        0.1740
     17 C         141.2628  138.2398  163.5453 C.2     1  UNL1        0.0547
     18 C         139.9822  140.8893  165.1384 C.3     1  UNL1        0.0971
     19 C         139.9729  142.3760  164.9395 C.3     1  UNL1        0.0387
     20 C         138.5559  142.8018  164.6923 C.3     1  UNL1        0.0704
     21 N         137.6895  141.5781  164.7386 N.3     1  UNL1       -0.2960
     22 C         138.5710  140.3961  165.0143 C.3     1  UNL1        0.0890
     23 H         137.2158  141.4554  163.8436 H       1  UNL1        0.1233
@<TRIPOS>BOND
     1     1     2    2
     2     2     4    1
     3     4     5   ar
     4     5     6   ar
     5     6     7   ar
     6     7     8   ar
     7     8     9    1
     8     8    10   ar
     9    10    11    1
    10     2     3   am
    11     3    12    1
    12    12    13    2
    13    13    14    1
    14    14    15    1
    15    15    16    1
    16    16    17    2
    17    18     3    1
    18    18    19    1
    19    19    20    1
    20    20    21    1
    21    21    22    1
    22    10     4   ar
    23    17    12    1
    24    22    18    1
    25    21    23    1
