@<TRIPOS>MOLECULE
*****
 39 44 0 0 0
SMALL
GASTEIGER

@<TRIPOS>ATOM
      1 C         137.8317  142.9675  163.1194 C.3     1  UNL1        0.0932
      2 C         138.0148  142.7173  161.6518 C.3     1  UNL1        0.0286
      3 C         138.0343  141.3122  161.1272 C.3     1  UNL1        0.0193
      4 C         137.8707  140.1572  162.0702 C.3     1  UNL1        0.0700
      5 C         137.6876  140.4073  163.5378 C.3     1  UNL1        0.0193
      6 C         137.6681  141.8125  164.0624 C.3     1  UNL1        0.0286
      7 C         137.8533  140.9095  162.4044 C.3     1  UNL1        0.1562
      8 O         137.8356  142.1800  162.8789 O.3     1  UNL1       -0.3572
      9 N         137.8902  138.7521  161.5456 N.3     1  UNL1       -0.2926
     10 H         137.3011  138.7404  160.7130 H       1  UNL1        0.1236
     11 C         139.1920  138.1120  161.1639 C.3     1  UNL1        0.1152
     12 C         140.3960  138.2792  162.0427 C.ar    1  UNL1        0.0765
     13 C         140.5528  137.4305  163.2696 C.ar    1  UNL1        0.0193
     14 C         141.7568  137.5977  164.1484 C.ar    1  UNL1        0.0411
     15 C         142.8042  138.6135  163.8003 C.ar    1  UNL1        0.1708
     16 C         142.6475  139.4621  162.5734 C.ar    1  UNL1        0.1682
     17 N         141.4434  139.2950  161.6946 N.ar    1  UNL1       -0.2304
     18 N         143.6949  140.4779  162.2253 N.am    1  UNL1       -0.2639
     19 C         144.8990  140.6450  163.1041 C.2     1  UNL1        0.2718
     20 O         145.9463  141.6608  162.7560 O.2     1  UNL1       -0.2707
     21 C         145.0557  139.7964  164.3310 C.3     1  UNL1        0.2898
     22 O         144.0083  138.7806  164.6791 O.3     1  UNL1       -0.4628
     23 H         143.5921  141.0349  161.4201 H       1  UNL1        0.1565
     24 C         137.8122  144.3725  163.6441 C.3     1  UNL1        0.0320
     25 C         138.9209  144.8577  164.5304 C.3     1  UNL1        0.0327
     26 C         140.8680  142.0121  167.4220 C.ar    1  UNL1        0.2534
     27 N         140.2190  142.9606  166.4581 N.ar    1  UNL1       -0.2085
     28 C         140.9767  143.4454  165.2578 C.ar    1  UNL1        0.1003
     29 C         140.3276  144.3940  164.2939 C.ar    1  UNL1        0.0261
     30 C         141.0853  144.8788  163.0936 C.ar    1  UNL1        0.1566
     31 F         140.4363  145.8273  162.1297 F       1  UNL1       -0.2028
     32 C         142.4921  144.4150  162.8571 C.ar    1  UNL1        0.1281
     33 N         143.1412  143.4665  163.8209 N.ar    1  UNL1       -0.2399
     34 C         142.3834  142.9817  165.0212 C.ar    1  UNL1        0.1012
     35 C         143.0325  142.0332  165.9851 C.ar    1  UNL1        0.0551
     36 C         142.2748  141.5484  167.1854 C.ar    1  UNL1        0.1945
     37 F         142.9239  140.5998  168.1493 F       1  UNL1       -0.1992
     38 C         139.5373  140.1412  168.6380 C.3     1  UNL1        0.2543
     39 O         140.1103  141.5273  168.6223 O.3     1  UNL1       -0.4546
@<TRIPOS>BOND
     1    38    39    1
     2    39    26    1
     3    26    27   ar
     4    27    28   ar
     5    28    29   ar
     6    29    25    1
     7    25    24    1
     8    24     1    1
     9     1     2    1
    10     2     3    1
    11     3     4    1
    12     4     9    1
    13     9    11    1
    14    11    12    1
    15    12    13   ar
    16    13    14   ar
    17    14    15   ar
    18    15    16   ar
    19    16    17   ar
    20    16    18    1
    21    18    19   am
    22    19    20    2
    23    19    21    1
    24    21    22    1
    25     4     5    1
    26     5     6    1
    27     4     7    1
    28     7     8    1
    29    29    30   ar
    30    30    31    1
    31    30    32   ar
    32    32    33   ar
    33    33    34   ar
    34    34    35   ar
    35    35    36   ar
    36    36    37    1
    37    36    26   ar
    38    34    28   ar
    39     6     1    1
    40     8     1    1
    41    17    12   ar
    42    22    15    1
    43     9    10    1
    44    18    23    1
@<TRIPOS>MOLECULE
*****
 39 44 0 0 0
SMALL
GASTEIGER

@<TRIPOS>ATOM
      1 C         141.8472  138.1999  163.9071 C.3     1  UNL1        0.0932
      2 C         142.2170  138.4895  162.4825 C.3     1  UNL1        0.0286
      3 C         143.4479  139.2894  162.1748 C.3     1  UNL1        0.0193
      4 C         144.3093  139.7999  163.2918 C.3     1  UNL1        0.0700
      5 C         143.9396  139.5103  164.7164 C.3     1  UNL1        0.0193
      6 C         142.7085  138.7103  165.0240 C.3     1  UNL1        0.0286
      7 C         143.6444  139.3659  163.5097 C.3     1  UNL1        0.1562
      8 O         142.5313  138.6425  163.7879 O.3     1  UNL1       -0.3572
      9 N         145.5402  140.5999  162.9842 N.3     1  UNL1       -0.2926
     10 H         145.6749  140.5563  161.9741 H       1  UNL1        0.1236
     11 C         145.6088  142.0483  163.3681 C.3     1  UNL1        0.1152
     12 C         144.4001  142.9231  163.2140 C.ar    1  UNL1        0.0765
     13 C         143.7311  143.4986  164.4270 C.ar    1  UNL1        0.0193
     14 C         142.5224  144.3733  164.2729 C.ar    1  UNL1        0.0411
     15 C         141.9826  144.6726  162.9058 C.ar    1  UNL1        0.1708
     16 C         142.6515  144.0972  161.6928 C.ar    1  UNL1        0.1682
     17 N         143.8603  143.2224  161.8468 N.ar    1  UNL1       -0.2304
     18 N         142.1117  144.3965  160.3257 N.am    1  UNL1       -0.2639
     19 C         140.9029  145.2712  160.1715 C.2     1  UNL1        0.2718
     20 O         140.3631  145.5705  158.8044 O.2     1  UNL1       -0.2707
     21 C         140.2340  145.8467  161.3846 C.3     1  UNL1        0.2898
     22 O         140.7738  145.5474  162.7517 O.3     1  UNL1       -0.4628
     23 H         142.5507  144.0187  159.5295 H       1  UNL1        0.1565
     24 C         140.6163  137.3999  164.2147 C.3     1  UNL1        0.0320
     25 C         139.3524  138.0961  164.6248 C.3     1  UNL1        0.0327
     26 C         139.6552  142.4046  165.8876 C.ar    1  UNL1        0.2534
     27 N         139.5542  140.9685  165.4667 N.ar    1  UNL1       -0.2085
     28 C         138.8754  140.6106  164.1778 C.ar    1  UNL1        0.1003
     29 C         138.7745  139.1744  163.7569 C.ar    1  UNL1        0.0261
     30 C         138.0957  138.8165  162.4680 C.ar    1  UNL1        0.1566
     31 F         137.9948  137.3804  162.0471 F       1  UNL1       -0.2028
     32 C         137.5179  139.8949  161.6001 C.ar    1  UNL1        0.1281
     33 N         137.6188  141.3310  162.0210 N.ar    1  UNL1       -0.2399
     34 C         138.2976  141.6889  163.3099 C.ar    1  UNL1        0.1012
     35 C         138.3985  143.1250  163.7309 C.ar    1  UNL1        0.0551
     36 C         139.0773  143.4829  165.0197 C.ar    1  UNL1        0.1945
     37 F         139.1782  144.9191  165.4406 F       1  UNL1       -0.1992
     38 C         141.7126  142.2474  167.4663 C.3     1  UNL1        0.2543
     39 O         140.3340  142.7625  167.1765 O.3     1  UNL1       -0.4546
@<TRIPOS>BOND
     1    38    39    1
     2    39    26    1
     3    26    27   ar
     4    27    28   ar
     5    28    29   ar
     6    29    25    1
     7    25    24    1
     8    24     1    1
     9     1     2    1
    10     2     3    1
    11     3     4    1
    12     4     9    1
    13     9    11    1
    14    11    12    1
    15    12    13   ar
    16    13    14   ar
    17    14    15   ar
    18    15    16   ar
    19    16    17   ar
    20    16    18    1
    21    18    19   am
    22    19    20    2
    23    19    21    1
    24    21    22    1
    25     4     5    1
    26     5     6    1
    27     4     7    1
    28     7     8    1
    29    29    30   ar
    30    30    31    1
    31    30    32   ar
    32    32    33   ar
    33    33    34   ar
    34    34    35   ar
    35    35    36   ar
    36    36    37    1
    37    36    26   ar
    38    34    28   ar
    39     6     1    1
    40     8     1    1
    41    17    12   ar
    42    22    15    1
    43     9    10    1
    44    18    23    1
@<TRIPOS>MOLECULE
*****
 39 44 0 0 0
SMALL
GASTEIGER

@<TRIPOS>ATOM
      1 C         141.8205  138.1294  164.2515 C.3     1  UNL1        0.0932
      2 C         141.9860  138.5436  162.8193 C.3     1  UNL1        0.0286
      3 C         143.2042  139.3097  162.3962 C.3     1  UNL1        0.0193
      4 C         144.2569  139.6616  163.4052 C.3     1  UNL1        0.0700
      5 C         144.0914  139.2474  164.8373 C.3     1  UNL1        0.0193
      6 C         142.8731  138.4813  165.2605 C.3     1  UNL1        0.0286
      7 C         143.6067  139.2407  163.6844 C.3     1  UNL1        0.1562
      8 O         142.5052  138.5479  164.0671 O.3     1  UNL1       -0.3572
      9 N         145.4751  140.4277  162.9821 N.3     1  UNL1       -0.2926
     10 H         145.5557  140.3176  161.9712 H       1  UNL1        0.1236
     11 C         145.5734  141.8971  163.2668 C.3     1  UNL1        0.1152
     12 C         144.3578  142.7675  163.1460 C.ar    1  UNL1        0.0765
     13 C         143.6607  143.2578  164.3804 C.ar    1  UNL1        0.0193
     14 C         142.4450  144.1282  164.2596 C.ar    1  UNL1        0.0411
     15 C         141.9264  144.5083  162.9044 C.ar    1  UNL1        0.1708
     16 C         142.6235  144.0180  161.6700 C.ar    1  UNL1        0.1682
     17 N         143.8392  143.1476  161.7908 N.ar    1  UNL1       -0.2304
     18 N         142.1049  144.3981  160.3148 N.am    1  UNL1       -0.2639
     19 C         140.8892  145.2685  160.1940 C.2     1  UNL1        0.2718
     20 O         140.3706  145.6486  158.8388 O.2     1  UNL1       -0.2707
     21 C         140.1921  145.7588  161.4284 C.3     1  UNL1        0.2898
     22 O         140.7107  145.3787  162.7836 O.3     1  UNL1       -0.4628
     23 H         142.5624  144.0763  159.5047 H       1  UNL1        0.1565
     24 C         140.6023  137.3633  164.6746 C.3     1  UNL1        0.0320
     25 C         139.4084  138.0923  165.2161 C.3     1  UNL1        0.0327
     26 C         140.8611  140.9793  168.3473 C.ar    1  UNL1        0.2534
     27 N         140.3769  140.0170  167.3036 N.ar    1  UNL1       -0.2085
     28 C         139.7529  140.5319  166.0405 C.ar    1  UNL1        0.1003
     29 C         139.2686  139.5695  164.9967 C.ar    1  UNL1        0.0261
     30 C         138.6446  140.0844  163.7336 C.ar    1  UNL1        0.1566
     31 F         138.1603  139.1221  162.6899 F       1  UNL1       -0.2028
     32 C         138.5048  141.5618  163.5143 C.ar    1  UNL1        0.1281
     33 N         138.9891  142.5241  164.5580 N.ar    1  UNL1       -0.2399
     34 C         139.6131  142.0092  165.8211 C.ar    1  UNL1        0.1012
     35 C         140.0973  142.9715  166.8648 C.ar    1  UNL1        0.0551
     36 C         140.7214  142.4566  168.1279 C.ar    1  UNL1        0.1945
     37 F         141.2056  143.4190  169.1717 F       1  UNL1       -0.1992
     38 C         142.9507  140.6653  169.8589 C.3     1  UNL1        0.2543
     39 O         141.4852  140.4644  169.6104 O.3     1  UNL1       -0.4546
@<TRIPOS>BOND
     1    38    39    1
     2    39    26    1
     3    26    27   ar
     4    27    28   ar
     5    28    29   ar
     6    29    25    1
     7    25    24    1
     8    24     1    1
     9     1     2    1
    10     2     3    1
    11     3     4    1
    12     4     9    1
    13     9    11    1
    14    11    12    1
    15    12    13   ar
    16    13    14   ar
    17    14    15   ar
    18    15    16   ar
    19    16    17   ar
    20    16    18    1
    21    18    19   am
    22    19    20    2
    23    19    21    1
    24    21    22    1
    25     4     5    1
    26     5     6    1
    27     4     7    1
    28     7     8    1
    29    29    30   ar
    30    30    31    1
    31    30    32   ar
    32    32    33   ar
    33    33    34   ar
    34    34    35   ar
    35    35    36   ar
    36    36    37    1
    37    36    26   ar
    38    34    28   ar
    39     6     1    1
    40     8     1    1
    41    17    12   ar
    42    22    15    1
    43     9    10    1
    44    18    23    1
@<TRIPOS>MOLECULE
*****
 39 44 0 0 0
SMALL
GASTEIGER

@<TRIPOS>ATOM
      1 C         141.7754  137.8651  164.6382 C.3     1  UNL1        0.0932
      2 C         142.1421  138.0176  163.1917 C.3     1  UNL1        0.0286
      3 C         141.0751  137.9712  162.1385 C.3     1  UNL1        0.0193
      4 C         139.6413  137.7721  162.5318 C.3     1  UNL1        0.0700
      5 C         139.2745  137.6196  163.9782 C.3     1  UNL1        0.0193
      6 C         140.3416  137.6660  165.0315 C.3     1  UNL1        0.0286
      7 C         140.1909  137.7908  163.1445 C.3     1  UNL1        0.1562
      8 O         141.1558  137.8328  164.0969 O.3     1  UNL1       -0.3572
      9 N         138.5742  137.7257  161.4786 N.3     1  UNL1       -0.2926
     10 H         138.1144  136.8193  161.5651 H       1  UNL1        0.1236
     11 C         137.4897  138.7618  161.4635 C.3     1  UNL1        0.1152
     12 C         137.8421  140.2177  161.5418 C.ar    1  UNL1        0.0765
     13 C         138.2437  140.9599  160.3017 C.ar    1  UNL1        0.0193
     14 C         138.5961  142.4158  160.3800 C.ar    1  UNL1        0.0411
     15 C         138.5469  143.1295  161.6984 C.ar    1  UNL1        0.1708
     16 C         138.1454  142.3873  162.9385 C.ar    1  UNL1        0.1682
     17 N         137.7929  140.9314  162.8602 N.ar    1  UNL1       -0.2304
     18 N         138.0962  143.1011  164.2569 N.am    1  UNL1       -0.2639
     19 C         138.4486  144.5569  164.3352 C.2     1  UNL1        0.2718
     20 O         138.3995  145.2707  165.6536 O.2     1  UNL1       -0.2707
     21 C         138.8502  145.2992  163.0951 C.3     1  UNL1        0.2898
     22 O         138.8994  144.5855  161.7767 O.3     1  UNL1       -0.4628
     23 H         137.8327  142.6139  165.0708 H       1  UNL1        0.1565
     24 C         142.8424  137.9115  165.6914 C.3     1  UNL1        0.0320
     25 C         143.3836  139.2322  166.1530 C.3     1  UNL1        0.0327
     26 C         143.9369  142.6112  163.2331 C.ar    1  UNL1        0.2534
     27 N         143.7524  141.4849  164.2064 N.ar    1  UNL1       -0.2085
     28 C         142.6688  141.5575  165.2410 C.ar    1  UNL1        0.1003
     29 C         142.4844  140.4311  166.2143 C.ar    1  UNL1        0.0261
     30 C         141.4007  140.5037  167.2489 C.ar    1  UNL1        0.1566
     31 F         141.2163  139.3774  168.2222 F       1  UNL1       -0.2028
     32 C         140.5014  141.7028  167.3102 C.ar    1  UNL1        0.1281
     33 N         140.6858  142.8291  166.3369 N.ar    1  UNL1       -0.2399
     34 C         141.7695  142.7565  165.3023 C.ar    1  UNL1        0.1012
     35 C         141.9539  143.8828  164.3290 C.ar    1  UNL1        0.0551
     36 C         143.0376  143.8102  163.2944 C.ar    1  UNL1        0.1945
     37 F         143.2220  144.9366  162.3211 F       1  UNL1       -0.1992
     38 C         144.6643  142.4194  160.7464 C.3     1  UNL1        0.2543
     39 O         145.0205  142.5386  162.1985 O.3     1  UNL1       -0.4546
@<TRIPOS>BOND
     1    38    39    1
     2    39    26    1
     3    26    27   ar
     4    27    28   ar
     5    28    29   ar
     6    29    25    1
     7    25    24    1
     8    24     1    1
     9     1     2    1
    10     2     3    1
    11     3     4    1
    12     4     9    1
    13     9    11    1
    14    11    12    1
    15    12    13   ar
    16    13    14   ar
    17    14    15   ar
    18    15    16   ar
    19    16    17   ar
    20    16    18    1
    21    18    19   am
    22    19    20    2
    23    19    21    1
    24    21    22    1
    25     4     5    1
    26     5     6    1
    27     4     7    1
    28     7     8    1
    29    29    30   ar
    30    30    31    1
    31    30    32   ar
    32    32    33   ar
    33    33    34   ar
    34    34    35   ar
    35    35    36   ar
    36    36    37    1
    37    36    26   ar
    38    34    28   ar
    39     6     1    1
    40     8     1    1
    41    17    12   ar
    42    22    15    1
    43     9    10    1
    44    18    23    1
@<TRIPOS>MOLECULE
*****
 39 44 0 0 0
SMALL
GASTEIGER

@<TRIPOS>ATOM
      1 C         143.6241  139.0623  163.6153 C.3     1  UNL1        0.0932
      2 C         142.7638  138.4434  164.6768 C.3     1  UNL1        0.0286
      3 C         141.4796  137.7656  164.3008 C.3     1  UNL1        0.0193
      4 C         141.0557  137.7067  162.8631 C.3     1  UNL1        0.0700
      5 C         141.9160  138.3256  161.8015 C.3     1  UNL1        0.0193
      6 C         143.2002  139.0034  162.1777 C.3     1  UNL1        0.0286
      7 C         141.7677  138.0889  163.0206 C.3     1  UNL1        0.1562
      8 O         142.9289  138.7018  163.3607 O.3     1  UNL1       -0.3572
      9 N         139.7715  137.0289  162.4870 N.3     1  UNL1       -0.2926
     10 H         139.7424  136.1478  163.0000 H       1  UNL1        0.1236
     11 C         138.4610  137.7161  162.7321 C.3     1  UNL1        0.1152
     12 C         138.3347  139.1934  162.5048 C.ar    1  UNL1        0.0765
     13 C         138.3377  139.7403  161.1080 C.ar    1  UNL1        0.0193
     14 C         138.2115  141.2175  160.8806 C.ar    1  UNL1        0.0411
     15 C         138.0821  142.1480  162.0500 C.ar    1  UNL1        0.1708
     16 C         138.0791  141.6012  163.4468 C.ar    1  UNL1        0.1682
     17 N         138.2054  140.1238  163.6742 N.ar    1  UNL1       -0.2304
     18 N         137.9498  142.5316  164.6162 N.am    1  UNL1       -0.2639
     19 C         137.8235  144.0089  164.3889 C.2     1  UNL1        0.2718
     20 O         137.6942  144.9393  165.5583 O.2     1  UNL1       -0.2707
     21 C         137.8266  144.5557  162.9921 C.3     1  UNL1        0.2898
     22 O         137.9559  143.6253  161.8226 O.3     1  UNL1       -0.4628
     23 H         137.9478  142.1727  165.5329 H       1  UNL1        0.1565
     24 C         144.9082  139.7401  163.9914 C.3     1  UNL1        0.0320
     25 C         144.9049  141.1874  164.3856 C.3     1  UNL1        0.0327
     26 C         142.3315  141.4049  168.0707 C.ar    1  UNL1        0.2534
     27 N         143.1893  141.3324  166.8424 N.ar    1  UNL1       -0.2085
     28 C         142.7667  142.0410  165.5896 C.ar    1  UNL1        0.1003
     29 C         143.6246  141.9685  164.3612 C.ar    1  UNL1        0.0261
     30 C         143.2021  142.6770  163.1085 C.ar    1  UNL1        0.1566
     31 F         144.0599  142.6045  161.8801 F       1  UNL1       -0.2028
     32 C         141.9217  143.4581  163.0841 C.ar    1  UNL1        0.1281
     33 N         141.0639  143.5306  164.3124 N.ar    1  UNL1       -0.2399
     34 C         141.4864  142.8221  165.5652 C.ar    1  UNL1        0.1012
     35 C         140.6286  142.8946  166.7935 C.ar    1  UNL1        0.0551
     36 C         141.0511  142.1860  168.0463 C.ar    1  UNL1        0.1945
     37 F         140.1933  142.2585  169.2747 F       1  UNL1       -0.1992
     38 C         142.0457  139.4459  169.7531 C.3     1  UNL1        0.2543
     39 O         142.7540  140.6964  169.3235 O.3     1  UNL1       -0.4546
@<TRIPOS>BOND
     1    38    39    1
     2    39    26    1
     3    26    27   ar
     4    27    28   ar
     5    28    29   ar
     6    29    25    1
     7    25    24    1
     8    24     1    1
     9     1     2    1
    10     2     3    1
    11     3     4    1
    12     4     9    1
    13     9    11    1
    14    11    12    1
    15    12    13   ar
    16    13    14   ar
    17    14    15   ar
    18    15    16   ar
    19    16    17   ar
    20    16    18    1
    21    18    19   am
    22    19    20    2
    23    19    21    1
    24    21    22    1
    25     4     5    1
    26     5     6    1
    27     4     7    1
    28     7     8    1
    29    29    30   ar
    30    30    31    1
    31    30    32   ar
    32    32    33   ar
    33    33    34   ar
    34    34    35   ar
    35    35    36   ar
    36    36    37    1
    37    36    26   ar
    38    34    28   ar
    39     6     1    1
    40     8     1    1
    41    17    12   ar
    42    22    15    1
    43     9    10    1
    44    18    23    1
@<TRIPOS>MOLECULE
*****
 39 44 0 0 0
SMALL
GASTEIGER

@<TRIPOS>ATOM
      1 C         144.3890  139.7585  163.6839 C.3     1  UNL1        0.0932
      2 C         144.1394  139.2680  162.2886 C.3     1  UNL1        0.0286
      3 C         142.9747  138.3654  162.0080 C.3     1  UNL1        0.0193
      4 C         142.0595  137.9535  163.1228 C.3     1  UNL1        0.0700
      5 C         142.3090  138.4441  164.5181 C.3     1  UNL1        0.0193
      6 C         143.4739  139.3466  164.7987 C.3     1  UNL1        0.0286
      7 C         142.6847  138.4495  163.3252 C.3     1  UNL1        0.1562
      8 O         143.7379  139.2656  163.5790 O.3     1  UNL1       -0.3572
      9 N         140.8947  137.0510  162.8422 N.3     1  UNL1       -0.2926
     10 H         140.7431  136.4954  163.6841 H       1  UNL1        0.1236
     11 C         139.5662  137.6363  162.4646 C.3     1  UNL1        0.1152
     12 C         139.1416  138.9592  163.0299 C.ar    1  UNL1        0.0765
     13 C         138.5279  139.0286  164.3969 C.ar    1  UNL1        0.0193
     14 C         138.1034  140.3515  164.9621 C.ar    1  UNL1        0.0411
     15 C         138.2924  141.6051  164.1604 C.ar    1  UNL1        0.1708
     16 C         138.9061  141.5358  162.7935 C.ar    1  UNL1        0.1682
     17 N         139.3307  140.2128  162.2282 N.ar    1  UNL1       -0.2304
     18 N         139.0952  142.7894  161.9918 N.am    1  UNL1       -0.2639
     19 C         138.6706  144.1123  162.5571 C.2     1  UNL1        0.2718
     20 O         138.8597  145.3660  161.7554 O.2     1  UNL1       -0.2707
     21 C         138.0569  144.1817  163.9241 C.3     1  UNL1        0.2898
     22 O         137.8678  142.9281  164.7258 O.3     1  UNL1       -0.4628
     23 H         139.4980  142.7439  161.0946 H       1  UNL1        0.1565
     24 C         145.5538  140.6611  163.9645 C.3     1  UNL1        0.0320
     25 C         145.6364  142.0060  163.3054 C.3     1  UNL1        0.0327
     26 C         143.7961  142.6863  159.2556 C.ar    1  UNL1        0.2534
     27 N         144.4095  142.4596  160.6055 N.ar    1  UNL1       -0.2085
     28 C         143.7923  143.0803  161.8236 C.ar    1  UNL1        0.1003
     29 C         144.4058  142.8535  163.1736 C.ar    1  UNL1        0.0261
     30 C         143.7886  143.4742  164.3917 C.ar    1  UNL1        0.1566
     31 F         144.4020  143.2474  165.7416 F       1  UNL1       -0.2028
     32 C         142.5580  144.3217  164.2599 C.ar    1  UNL1        0.1281
     33 N         141.9445  144.5484  162.9100 N.ar    1  UNL1       -0.2399
     34 C         142.5617  143.9277  161.6919 C.ar    1  UNL1        0.1012
     35 C         141.9483  144.1545  160.3420 C.ar    1  UNL1        0.0551
     36 C         142.5655  143.5338  159.1238 C.ar    1  UNL1        0.1945
     37 F         141.9520  143.7606  157.7739 F       1  UNL1       -0.1992
     38 C         145.7711  142.5064  157.5773 C.3     1  UNL1        0.2543
     39 O         144.4133  142.0656  158.0375 O.3     1  UNL1       -0.4546
@<TRIPOS>BOND
     1    38    39    1
     2    39    26    1
     3    26    27   ar
     4    27    28   ar
     5    28    29   ar
     6    29    25    1
     7    25    24    1
     8    24     1    1
     9     1     2    1
    10     2     3    1
    11     3     4    1
    12     4     9    1
    13     9    11    1
    14    11    12    1
    15    12    13   ar
    16    13    14   ar
    17    14    15   ar
    18    15    16   ar
    19    16    17   ar
    20    16    18    1
    21    18    19   am
    22    19    20    2
    23    19    21    1
    24    21    22    1
    25     4     5    1
    26     5     6    1
    27     4     7    1
    28     7     8    1
    29    29    30   ar
    30    30    31    1
    31    30    32   ar
    32    32    33   ar
    33    33    34   ar
    34    34    35   ar
    35    35    36   ar
    36    36    37    1
    37    36    26   ar
    38    34    28   ar
    39     6     1    1
    40     8     1    1
    41    17    12   ar
    42    22    15    1
    43     9    10    1
    44    18    23    1
@<TRIPOS>MOLECULE
*****
 39 44 0 0 0
SMALL
GASTEIGER

@<TRIPOS>ATOM
      1 C         141.9174  138.0348  163.7575 C.3     1  UNL1        0.0932
      2 C         142.2990  138.4237  162.3600 C.3     1  UNL1        0.0286
      3 C         143.5133  139.2717  162.1226 C.3     1  UNL1        0.0193
      4 C         144.3461  139.7307  163.2827 C.3     1  UNL1        0.0700
      5 C         143.9645  139.3418  164.6802 C.3     1  UNL1        0.0193
      6 C         142.7501  138.4938  164.9176 C.3     1  UNL1        0.0286
      7 C         143.6896  139.2675  163.4624 C.3     1  UNL1        0.1562
      8 O         142.5915  138.5008  163.6772 O.3     1  UNL1       -0.3572
      9 N         145.5604  140.5787  163.0453 N.3     1  UNL1       -0.2926
     10 H         145.7503  140.5471  162.0436 H       1  UNL1        0.1236
     11 C         145.5533  142.0260  163.4393 C.3     1  UNL1        0.1152
     12 C         144.3091  142.8451  163.2631 C.ar    1  UNL1        0.0765
     13 C         143.5150  143.2704  164.4626 C.ar    1  UNL1        0.0193
     14 C         142.2709  144.0895  164.2864 C.ar    1  UNL1        0.0411
     15 C         141.8208  144.4834  162.9108 C.ar    1  UNL1        0.1708
     16 C         142.6148  144.0582  161.7114 C.ar    1  UNL1        0.1682
     17 N         143.8590  143.2390  161.8875 N.ar    1  UNL1       -0.2304
     18 N         142.1647  144.4521  160.3358 N.am    1  UNL1       -0.2639
     19 C         140.9206  145.2712  160.1596 C.2     1  UNL1        0.2718
     20 O         140.4705  145.6651  158.7841 O.2     1  UNL1       -0.2707
     21 C         140.1264  145.6965  161.3591 C.3     1  UNL1        0.2898
     22 O         140.5765  145.3026  162.7347 O.3     1  UNL1       -0.4628
     23 H         142.6859  144.1730  159.5486 H       1  UNL1        0.1565
     24 C         140.7031  137.1869  163.9949 C.3     1  UNL1        0.0320
     25 C         139.3525  137.8282  164.1160 C.3     1  UNL1        0.0327
     26 C         138.4924  140.2674  160.4336 C.ar    1  UNL1        0.2534
     27 N         138.7791  139.4544  161.6610 N.ar    1  UNL1       -0.2085
     28 C         138.9502  140.1335  162.9874 C.ar    1  UNL1        0.1003
     29 C         139.2369  139.3204  164.2150 C.ar    1  UNL1        0.0261
     30 C         139.4081  139.9996  165.5414 C.ar    1  UNL1        0.1566
     31 F         139.6948  139.1866  166.7688 F       1  UNL1       -0.2028
     32 C         139.2925  141.4919  165.6403 C.ar    1  UNL1        0.1281
     33 N         139.0058  142.3050  164.4128 N.ar    1  UNL1       -0.2399
     34 C         138.8347  141.6258  163.0864 C.ar    1  UNL1        0.1012
     35 C         138.5480  142.4388  161.8589 C.ar    1  UNL1        0.0551
     36 C         138.3768  141.7596  160.5325 C.ar    1  UNL1        0.1945
     37 F         138.0901  142.5728  159.3050 F       1  UNL1       -0.1992
     38 C         139.5141  139.3391  158.2326 C.3     1  UNL1        0.2543
     39 O         138.3212  139.5882  159.1071 O.3     1  UNL1       -0.4546
@<TRIPOS>BOND
     1    38    39    1
     2    39    26    1
     3    26    27   ar
     4    27    28   ar
     5    28    29   ar
     6    29    25    1
     7    25    24    1
     8    24     1    1
     9     1     2    1
    10     2     3    1
    11     3     4    1
    12     4     9    1
    13     9    11    1
    14    11    12    1
    15    12    13   ar
    16    13    14   ar
    17    14    15   ar
    18    15    16   ar
    19    16    17   ar
    20    16    18    1
    21    18    19   am
    22    19    20    2
    23    19    21    1
    24    21    22    1
    25     4     5    1
    26     5     6    1
    27     4     7    1
    28     7     8    1
    29    29    30   ar
    30    30    31    1
    31    30    32   ar
    32    32    33   ar
    33    33    34   ar
    34    34    35   ar
    35    35    36   ar
    36    36    37    1
    37    36    26   ar
    38    34    28   ar
    39     6     1    1
    40     8     1    1
    41    17    12   ar
    42    22    15    1
    43     9    10    1
    44    18    23    1
@<TRIPOS>MOLECULE
*****
 39 44 0 0 0
SMALL
GASTEIGER

@<TRIPOS>ATOM
      1 C         139.8848  138.1577  164.0099 C.3     1  UNL1        0.0932
      2 C         139.1312  138.8790  165.0878 C.3     1  UNL1        0.0286
      3 C         138.1517  139.9558  164.7261 C.3     1  UNL1        0.0193
      4 C         137.9256  140.3114  163.2865 C.3     1  UNL1        0.0700
      5 C         138.6791  139.5901  162.2085 C.3     1  UNL1        0.0193
      6 C         139.6587  138.5132  162.5703 C.3     1  UNL1        0.0286
      7 C         138.4725  139.7143  163.4357 C.3     1  UNL1        0.1562
      8 O         139.3583  138.7406  163.7628 O.3     1  UNL1       -0.3572
      9 N         136.9460  141.3882  162.9248 N.3     1  UNL1       -0.2926
     10 H         136.1733  141.3178  163.5868 H       1  UNL1        0.1236
     11 C         137.3793  142.8242  162.9162 C.3     1  UNL1        0.1152
     12 C         138.7954  143.1783  162.5711 C.ar    1  UNL1        0.0765
     13 C         139.2540  143.1305  161.1436 C.ar    1  UNL1        0.0193
     14 C         140.6701  143.4845  160.7985 C.ar    1  UNL1        0.0411
     15 C         141.6278  143.8864  161.8808 C.ar    1  UNL1        0.1708
     16 C         141.1693  143.9342  163.3082 C.ar    1  UNL1        0.1682
     17 N         139.7531  143.5801  163.6534 N.ar    1  UNL1       -0.2304
     18 N         142.1270  144.3360  164.3905 N.am    1  UNL1       -0.2639
     19 C         143.5431  144.6901  164.0454 C.2     1  UNL1        0.2718
     20 O         144.5008  145.0920  165.1277 O.2     1  UNL1       -0.2707
     21 C         144.0017  144.6423  162.6180 C.3     1  UNL1        0.2898
     22 O         143.0440  144.2405  161.5357 O.3     1  UNL1       -0.4628
     23 H         141.8261  144.3674  165.3274 H       1  UNL1        0.1565
     24 C         140.8644  137.0809  164.3716 C.3     1  UNL1        0.0320
     25 C         142.1376  137.4331  165.0823 C.3     1  UNL1        0.0327
     26 C         141.8443  140.5212  168.3422 C.ar    1  UNL1        0.2534
     27 N         141.9421  139.4919  167.2556 N.ar    1  UNL1       -0.2085
     28 C         142.6561  139.8165  165.9770 C.ar    1  UNL1        0.1003
     29 C         142.7538  138.7871  164.8903 C.ar    1  UNL1        0.0261
     30 C         143.4678  139.1117  163.6117 C.ar    1  UNL1        0.1566
     31 F         143.5656  138.0823  162.5251 F       1  UNL1       -0.2028
     32 C         144.0841  140.4658  163.4198 C.ar    1  UNL1        0.1281
     33 N         143.9864  141.4951  164.5065 N.ar    1  UNL1       -0.2399
     34 C         143.2724  141.1705  165.7850 C.ar    1  UNL1        0.1012
     35 C         143.1746  142.1998  166.8717 C.ar    1  UNL1        0.0551
     36 C         142.4606  141.8752  168.1503 C.ar    1  UNL1        0.1945
     37 F         142.3629  142.9047  169.2369 F       1  UNL1       -0.1992
     38 C         139.6491  140.4080  169.7272 C.3     1  UNL1        0.2543
     39 O         141.1303  140.1966  169.6208 O.3     1  UNL1       -0.4546
@<TRIPOS>BOND
     1    38    39    1
     2    39    26    1
     3    26    27   ar
     4    27    28   ar
     5    28    29   ar
     6    29    25    1
     7    25    24    1
     8    24     1    1
     9     1     2    1
    10     2     3    1
    11     3     4    1
    12     4     9    1
    13     9    11    1
    14    11    12    1
    15    12    13   ar
    16    13    14   ar
    17    14    15   ar
    18    15    16   ar
    19    16    17   ar
    20    16    18    1
    21    18    19   am
    22    19    20    2
    23    19    21    1
    24    21    22    1
    25     4     5    1
    26     5     6    1
    27     4     7    1
    28     7     8    1
    29    29    30   ar
    30    30    31    1
    31    30    32   ar
    32    32    33   ar
    33    33    34   ar
    34    34    35   ar
    35    35    36   ar
    36    36    37    1
    37    36    26   ar
    38    34    28   ar
    39     6     1    1
    40     8     1    1
    41    17    12   ar
    42    22    15    1
    43     9    10    1
    44    18    23    1
@<TRIPOS>MOLECULE
*****
 39 44 0 0 0
SMALL
GASTEIGER

@<TRIPOS>ATOM
      1 C         139.9157  138.1840  164.0595 C.3     1  UNL1        0.0932
      2 C         139.1651  138.8758  165.1585 C.3     1  UNL1        0.0286
      3 C         138.1782  139.9560  164.8281 C.3     1  UNL1        0.0193
      4 C         137.9419  140.3443  163.3986 C.3     1  UNL1        0.0700
      5 C         138.6925  139.6524  162.2996 C.3     1  UNL1        0.0193
      6 C         139.6794  138.5722  162.6301 C.3     1  UNL1        0.0286
      7 C         138.4926  139.7466  163.5306 C.3     1  UNL1        0.1562
      8 O         139.3850  138.7699  163.8293 O.3     1  UNL1       -0.3572
      9 N         136.9550  141.4245  163.0682 N.3     1  UNL1       -0.2926
     10 H         136.2144  141.3706  163.7675 H       1  UNL1        0.1236
     11 C         137.3992  142.8563  163.0172 C.3     1  UNL1        0.1152
     12 C         138.6145  143.2368  162.2246 C.ar    1  UNL1        0.0765
     13 C         139.8987  143.5597  162.9294 C.ar    1  UNL1        0.0193
     14 C         141.1140  143.9401  162.1368 C.ar    1  UNL1        0.0411
     15 C         141.0451  143.9978  160.6394 C.ar    1  UNL1        0.1708
     16 C         139.7610  143.6749  159.9347 C.ar    1  UNL1        0.1682
     17 N         138.5456  143.2944  160.7273 N.ar    1  UNL1       -0.2304
     18 N         139.6921  143.7325  158.4374 N.am    1  UNL1       -0.2639
     19 C         140.9074  144.1130  157.6448 C.2     1  UNL1        0.2718
     20 O         140.8385  144.1707  156.1475 O.2     1  UNL1       -0.2707
     21 C         142.1917  144.4359  158.3495 C.3     1  UNL1        0.2898
     22 O         142.2605  144.3783  159.8469 O.3     1  UNL1       -0.4628
     23 H         138.8493  143.5206  157.9749 H       1  UNL1        0.1565
     24 C         140.9026  137.1038  164.3900 C.3     1  UNL1        0.0320
     25 C         142.2059  137.4535  165.0453 C.3     1  UNL1        0.0327
     26 C         141.8948  140.6127  168.2347 C.ar    1  UNL1        0.2534
     27 N         141.9985  139.5597  167.1716 N.ar    1  UNL1       -0.2085
     28 C         142.7139  139.8582  165.8875 C.ar    1  UNL1        0.1003
     29 C         142.8176  138.8050  164.8243 C.ar    1  UNL1        0.0261
     30 C         143.5331  139.1036  163.5402 C.ar    1  UNL1        0.1566
     31 F         143.6368  138.0505  162.4771 F       1  UNL1       -0.2028
     32 C         144.1449  140.4552  163.3192 C.ar    1  UNL1        0.1281
     33 N         144.0412  141.5083  164.3823 N.ar    1  UNL1       -0.2399
     34 C         143.3257  141.2098  165.6664 C.ar    1  UNL1        0.1012
     35 C         143.2220  142.2629  166.7295 C.ar    1  UNL1        0.0551
     36 C         142.5065  141.9643  168.0137 C.ar    1  UNL1        0.1945
     37 F         142.4028  143.0175  169.0768 F       1  UNL1       -0.1992
     38 C         139.6948  140.5076  169.6127 C.3     1  UNL1        0.2543
     39 O         141.1793  140.3142  169.5188 O.3     1  UNL1       -0.4546
@<TRIPOS>BOND
     1    38    39    1
     2    39    26    1
     3    26    27   ar
     4    27    28   ar
     5    28    29   ar
     6    29    25    1
     7    25    24    1
     8    24     1    1
     9     1     2    1
    10     2     3    1
    11     3     4    1
    12     4     9    1
    13     9    11    1
    14    11    12    1
    15    12    13   ar
    16    13    14   ar
    17    14    15   ar
    18    15    16   ar
    19    16    17   ar
    20    16    18    1
    21    18    19   am
    22    19    20    2
    23    19    21    1
    24    21    22    1
    25     4     5    1
    26     5     6    1
    27     4     7    1
    28     7     8    1
    29    29    30   ar
    30    30    31    1
    31    30    32   ar
    32    32    33   ar
    33    33    34   ar
    34    34    35   ar
    35    35    36   ar
    36    36    37    1
    37    36    26   ar
    38    34    28   ar
    39     6     1    1
    40     8     1    1
    41    17    12   ar
    42    22    15    1
    43     9    10    1
    44    18    23    1
