@<TRIPOS>MOLECULE
*****
 39 42 0 0 0
SMALL
GASTEIGER

@<TRIPOS>ATOM
      1 C         138.0173  142.9132  162.4185 C.3     1  UNL1        0.0206
      2 C         139.2161  142.0409  162.6466 C.3     1  UNL1        0.0956
      3 C         139.2777  141.1513  163.8527 C.3     1  UNL1        0.0900
      4 N         140.4765  140.2790  164.0808 N.3     1  UNL1       -0.2700
      5 C         141.6137  140.2964  163.1028 C.3     1  UNL1        0.0915
      6 C         141.5521  141.1861  161.8967 C.3     1  UNL1        0.1131
      7 N         140.3533  142.0583  161.6686 N.3     1  UNL1       -0.1541
      8 S         140.2917  142.9480  160.4625 S.O2    1  UNL1        0.0633
      9 O         139.5740  141.8708  159.7046 O.2     1  UNL1       -0.1528
     10 O         141.0095  144.0252  161.2204 O.2     1  UNL1       -0.1528
     11 C         140.2301  143.8376  159.2564 C.ar    1  UNL1        0.1222
     12 C         139.5198  143.3752  158.0188 C.ar    1  UNL1        0.0197
     13 C         139.4582  144.2649  156.8127 C.ar    1  UNL1       -0.0004
     14 C         140.1070  145.6170  156.8441 C.ar    1  UNL1        0.0099
     15 C         140.8173  146.0794  158.0817 C.ar    1  UNL1       -0.0004
     16 C         140.8789  145.1898  159.2878 C.ar    1  UNL1        0.0197
     17 C         140.0454  146.5066  155.6380 C.3     1  UNL1        0.1945
     18 C         139.9838  147.3962  154.4318 C.3     1  UNL1        0.0428
     19 O         139.4097  147.5842  156.4653 O.3     1  UNL1       -0.3751
     20 H         139.3102  147.2741  157.3790 H       1  UNL1        0.2110
     21 C         140.6811  145.4289  154.8107 C.3     1  UNL1        0.4230
     22 F         141.3169  144.3512  153.9833 F       1  UNL1       -0.1673
     23 F         142.0728  145.3229  155.3601 F       1  UNL1       -0.1673
     24 F         139.4053  145.2694  154.0381 F       1  UNL1       -0.1673
     25 C         140.5381  139.3893  165.2869 C.3     1  UNL1        0.0762
     26 C         139.2975  139.1241  166.0873 C.3     1  UNL1        0.0336
     27 C         137.9802  138.5308  166.4904 C.3     1  UNL1        0.0058
     28 C         138.6455  138.0873  165.2214 C.3     1  UNL1        0.0058
     29 C         139.5187  140.0688  167.2313 C.ar    1  UNL1       -0.0215
     30 C         138.9657  139.7463  168.5879 C.ar    1  UNL1       -0.0041
     31 C         139.1869  140.6910  169.7319 C.ar    1  UNL1        0.0042
     32 C         139.9610  141.9580  169.5193 C.ar    1  UNL1        0.0531
     33 C         140.5140  142.2805  168.1627 C.ar    1  UNL1        0.0042
     34 C         140.2929  141.3358  167.0187 C.ar    1  UNL1       -0.0041
     35 C         140.1822  142.9027  170.6632 C.2     1  UNL1        0.2427
     36 N         140.1436  144.3841  170.4308 N.am    1  UNL1       -0.3253
     37 O         140.4419  142.3661  172.0397 O.2     1  UNL1       -0.2704
     38 H         139.9732  144.7364  169.5274 H       1  UNL1        0.1453
     39 H         140.2888  145.0042  171.1816 H       1  UNL1        0.1453
@<TRIPOS>BOND
     1     2     1    1
     2     2     3    1
     3     3     4    1
     4     4    25    1
     5    25    26    1
     6    26    29    1
     7    29    30   ar
     8    30    31   ar
     9    31    32   ar
    10    32    35    1
    11    35    36   am
    12    35    37    2
    13    32    33   ar
    14    33    34   ar
    15    26    27    1
    16    27    28    1
    17     4     5    1
    18     5     6    1
    19     6     7    1
    20     7     8    1
    21     8     9    2
    22     8    10    2
    23     8    11    1
    24    11    12   ar
    25    12    13   ar
    26    13    14   ar
    27    14    17    1
    28    17    18    1
    29    17    19    1
    30    17    21    1
    31    21    22    1
    32    21    23    1
    33    21    24    1
    34    14    15   ar
    35    15    16   ar
    36     7     2    1
    37    16    11   ar
    38    28    26    1
    39    34    29   ar
    40    36    38    1
    41    36    39    1
    42    19    20    1
@<TRIPOS>MOLECULE
*****
 39 42 0 0 0
SMALL
GASTEIGER

@<TRIPOS>ATOM
      1 C         141.7884  143.7125  162.8604 C.3     1  UNL1        0.0206
      2 C         141.0532  142.4053  162.8329 C.3     1  UNL1        0.0956
      3 C         141.0990  141.4939  164.0233 C.3     1  UNL1        0.0900
      4 N         140.3637  140.1867  163.9959 N.3     1  UNL1       -0.2700
      5 C         139.5826  139.7910  162.7780 C.3     1  UNL1        0.0915
      6 C         139.5368  140.7025  161.5876 C.3     1  UNL1        0.1131
      7 N         140.2721  142.0096  161.6150 N.3     1  UNL1       -0.1541
      8 S         140.2263  142.9211  160.4245 S.O2    1  UNL1        0.0633
      9 O         141.4727  142.2823  159.8876 O.2     1  UNL1       -0.1528
     10 O         138.9798  143.5598  160.9614 O.2     1  UNL1       -0.1528
     11 C         140.1805  143.8324  159.2341 C.ar    1  UNL1        0.1222
     12 C         139.5172  143.3790  157.9674 C.ar    1  UNL1        0.0197
     13 C         139.4714  144.2904  156.7769 C.ar    1  UNL1       -0.0004
     14 C         140.0889  145.6553  156.8531 C.ar    1  UNL1        0.0099
     15 C         140.7522  146.1088  158.1198 C.ar    1  UNL1       -0.0004
     16 C         140.7980  145.1974  159.3102 C.ar    1  UNL1        0.0197
     17 C         140.0431  146.5667  155.6626 C.3     1  UNL1        0.1945
     18 C         139.9974  147.4781  154.4721 C.3     1  UNL1        0.0428
     19 O         139.3353  147.6034  156.4836 O.3     1  UNL1       -0.3751
     20 H         139.2106  147.2713  157.3864 H       1  UNL1        0.2110
     21 C         140.7510  145.5299  154.8417 C.3     1  UNL1        0.4230
     22 F         141.4589  144.4931  154.0207 F       1  UNL1       -0.1673
     23 F         142.1207  145.4589  155.4491 F       1  UNL1       -0.1673
     24 F         139.5159  145.3444  154.0109 F       1  UNL1       -0.1673
     25 C         140.4095  139.2753  165.1864 C.3     1  UNL1        0.0762
     26 C         141.6716  139.1507  165.9874 C.3     1  UNL1        0.0336
     27 C         143.0458  138.7064  166.3927 C.3     1  UNL1        0.0058
     28 C         142.4327  138.1869  165.1262 C.3     1  UNL1        0.0058
     29 C         141.3489  140.0714  167.1268 C.ar    1  UNL1       -0.0215
     30 C         140.0316  139.9552  167.8349 C.ar    1  UNL1       -0.0041
     31 C         139.7089  140.8758  168.9743 C.ar    1  UNL1        0.0042
     32 C         140.7034  141.9126  169.4057 C.ar    1  UNL1        0.0531
     33 C         142.0206  142.0287  168.6976 C.ar    1  UNL1        0.0042
     34 C         142.3434  141.1081  167.5582 C.ar    1  UNL1       -0.0041
     35 C         140.3806  142.8332  170.5451 C.2     1  UNL1        0.2427
     36 N         140.0592  144.2737  170.2775 N.am    1  UNL1       -0.3253
     37 O         140.3794  142.3134  171.9521 O.2     1  UNL1       -0.2704
     38 H         140.0600  144.6149  169.3540 H       1  UNL1        0.1453
     39 H         139.8474  144.8780  171.0253 H       1  UNL1        0.1453
@<TRIPOS>BOND
     1     2     1    1
     2     2     3    1
     3     3     4    1
     4     4    25    1
     5    25    26    1
     6    26    29    1
     7    29    30   ar
     8    30    31   ar
     9    31    32   ar
    10    32    35    1
    11    35    36   am
    12    35    37    2
    13    32    33   ar
    14    33    34   ar
    15    26    27    1
    16    27    28    1
    17     4     5    1
    18     5     6    1
    19     6     7    1
    20     7     8    1
    21     8     9    2
    22     8    10    2
    23     8    11    1
    24    11    12   ar
    25    12    13   ar
    26    13    14   ar
    27    14    17    1
    28    17    18    1
    29    17    19    1
    30    17    21    1
    31    21    22    1
    32    21    23    1
    33    21    24    1
    34    14    15   ar
    35    15    16   ar
    36     7     2    1
    37    16    11   ar
    38    28    26    1
    39    34    29   ar
    40    36    38    1
    41    36    39    1
    42    19    20    1
@<TRIPOS>MOLECULE
*****
 39 42 0 0 0
SMALL
GASTEIGER

@<TRIPOS>ATOM
      1 C         143.4232  138.4234  161.1135 C.3     1  UNL1        0.0206
      2 C         142.2717  138.3068  160.1593 C.3     1  UNL1        0.0956
      3 C         142.5243  137.9999  158.7129 C.3     1  UNL1        0.0900
      4 N         141.3728  137.8833  157.7588 N.3     1  UNL1       -0.2700
      5 C         139.9687  138.0736  158.2509 C.3     1  UNL1        0.0915
      6 C         139.7161  138.3805  159.6973 C.3     1  UNL1        0.1131
      7 N         140.8676  138.4971  160.6515 N.3     1  UNL1       -0.1541
      8 S         140.6150  138.8040  162.0979 S.O2    1  UNL1        0.0633
      9 O         140.6436  137.3380  162.4139 O.2     1  UNL1       -0.1528
     10 O         140.5864  140.2700  161.7819 O.2     1  UNL1       -0.1528
     11 C         140.3624  139.1108  163.5442 C.ar    1  UNL1        0.1222
     12 C         141.4352  138.8612  164.5624 C.ar    1  UNL1        0.0197
     13 C         141.1825  139.1680  166.0088 C.ar    1  UNL1       -0.0004
     14 C         139.8570  139.7245  166.4370 C.ar    1  UNL1        0.0099
     15 C         138.7842  139.9742  165.4188 C.ar    1  UNL1       -0.0004
     16 C         139.0368  139.6674  163.9725 C.ar    1  UNL1        0.0197
     17 C         139.6044  140.0314  167.8834 C.3     1  UNL1        0.1945
     18 C         139.3518  140.3383  169.3298 C.3     1  UNL1        0.0428
     19 O         138.4051  139.1306  167.8650 O.3     1  UNL1       -0.3751
     20 H         138.3006  138.7494  166.9792 H       1  UNL1        0.2110
     21 C         140.8037  140.9321  167.9018 C.3     1  UNL1        0.4230
     22 F         142.0030  141.8329  167.9201 F       1  UNL1       -0.1673
     23 F         140.4006  142.0910  167.0389 F       1  UNL1       -0.1673
     24 F         141.5183  139.9624  168.7957 F       1  UNL1       -0.1673
     25 C         141.6254  137.5764  156.3123 C.3     1  UNL1        0.0762
     26 C         142.9976  137.1737  155.8597 C.3     1  UNL1        0.0336
     27 C         144.4005  137.2868  155.3408 C.3     1  UNL1        0.0058
     28 C         143.5625  138.5190  155.5119 C.3     1  UNL1        0.0058
     29 C         142.9093  135.6885  156.0503 C.ar    1  UNL1       -0.0215
     30 C         143.7251  135.0194  157.1166 C.ar    1  UNL1       -0.0041
     31 C         143.6368  133.5342  157.3072 C.ar    1  UNL1        0.0042
     32 C         142.7328  132.7181  156.4316 C.ar    1  UNL1        0.0531
     33 C         141.9171  133.3872  155.3653 C.ar    1  UNL1        0.0042
     34 C         142.0054  134.8724  155.1747 C.ar    1  UNL1       -0.0041
     35 C         142.6446  131.2329  156.6222 C.2     1  UNL1        0.2427
     36 N         143.3481  130.5817  157.7760 N.am    1  UNL1       -0.3253
     37 O         141.8528  130.3988  155.6592 O.2     1  UNL1       -0.2704
     38 H         143.8677  131.1291  158.4081 H       1  UNL1        0.1453
     39 H         143.2901  129.6069  157.9011 H       1  UNL1        0.1453
@<TRIPOS>BOND
     1     2     1    1
     2     2     3    1
     3     3     4    1
     4     4    25    1
     5    25    26    1
     6    26    29    1
     7    29    30   ar
     8    30    31   ar
     9    31    32   ar
    10    32    35    1
    11    35    36   am
    12    35    37    2
    13    32    33   ar
    14    33    34   ar
    15    26    27    1
    16    27    28    1
    17     4     5    1
    18     5     6    1
    19     6     7    1
    20     7     8    1
    21     8     9    2
    22     8    10    2
    23     8    11    1
    24    11    12   ar
    25    12    13   ar
    26    13    14   ar
    27    14    17    1
    28    17    18    1
    29    17    19    1
    30    17    21    1
    31    21    22    1
    32    21    23    1
    33    21    24    1
    34    14    15   ar
    35    15    16   ar
    36     7     2    1
    37    16    11   ar
    38    28    26    1
    39    34    29   ar
    40    36    38    1
    41    36    39    1
    42    19    20    1
@<TRIPOS>MOLECULE
*****
 39 42 0 0 0
SMALL
GASTEIGER

@<TRIPOS>ATOM
      1 C         144.8637  140.7542  162.8904 C.3     1  UNL1        0.0206
      2 C         143.4631  140.2207  162.9509 C.3     1  UNL1        0.0956
      3 C         142.8974  139.7453  164.2562 C.3     1  UNL1        0.0900
      4 N         141.4967  139.2118  164.3167 N.3     1  UNL1       -0.2700
      5 C         140.6618  139.1538  163.0720 C.3     1  UNL1        0.0915
      6 C         141.2275  139.6292  161.7667 C.3     1  UNL1        0.1131
      7 N         142.6282  140.1627  161.7061 N.3     1  UNL1       -0.1541
      8 S         143.1939  140.6382  160.4007 S.O2    1  UNL1        0.0633
      9 O         142.7835  142.0418  160.7342 O.2     1  UNL1       -0.1528
     10 O         143.6042  139.2345  160.0673 O.2     1  UNL1       -0.1528
     11 C         143.7595  141.1136  159.0954 C.ar    1  UNL1        0.1222
     12 C         143.3873  140.4188  157.8192 C.ar    1  UNL1        0.0197
     13 C         143.9530  140.8944  156.5138 C.ar    1  UNL1       -0.0004
     14 C         144.8909  142.0646  156.4847 C.ar    1  UNL1        0.0099
     15 C         145.2631  142.7594  157.7609 C.ar    1  UNL1       -0.0004
     16 C         144.6974  142.2839  159.0663 C.ar    1  UNL1        0.0197
     17 C         145.4565  142.5401  155.1794 C.3     1  UNL1        0.1945
     18 C         146.0223  143.0156  153.8740 C.3     1  UNL1        0.0428
     19 O         144.0894  142.9807  154.7474 O.3     1  UNL1       -0.3751
     20 H         143.4498  142.7858  155.4501 H       1  UNL1        0.2110
     21 C         146.8237  142.0995  155.6114 C.3     1  UNL1        0.4230
     22 F         148.1910  141.6589  156.0434 F       1  UNL1       -0.1673
     23 F         146.7112  140.6067  155.7055 F       1  UNL1       -0.1673
     24 F         147.2808  143.5282  155.6222 F       1  UNL1       -0.1673
     25 C         140.9310  138.7364  165.6222 C.3     1  UNL1        0.0762
     26 C         139.5600  139.1709  166.0481 C.3     1  UNL1        0.0336
     27 C         138.0639  139.2233  166.1427 C.3     1  UNL1        0.0058
     28 C         138.7237  138.2216  165.2422 C.3     1  UNL1        0.0058
     29 C         139.9200  140.2712  167.0019 C.ar    1  UNL1       -0.0215
     30 C         140.0073  139.9901  168.4727 C.ar    1  UNL1       -0.0041
     31 C         140.3673  141.0904  169.4265 C.ar    1  UNL1        0.0042
     32 C         140.6401  142.4717  168.9095 C.ar    1  UNL1        0.0531
     33 C         140.5529  142.7529  167.4386 C.ar    1  UNL1        0.0042
     34 C         140.1928  141.6526  166.4849 C.ar    1  UNL1       -0.0041
     35 C         141.0002  143.5720  169.8633 C.2     1  UNL1        0.2427
     36 N         140.0340  144.6912  170.1164 N.am    1  UNL1       -0.3253
     37 O         142.3263  143.5532  170.5641 O.2     1  UNL1       -0.2704
     38 H         139.1636  144.7036  169.6565 H       1  UNL1        0.1453
     39 H         140.2703  145.4134  170.7424 H       1  UNL1        0.1453
@<TRIPOS>BOND
     1     2     1    1
     2     2     3    1
     3     3     4    1
     4     4    25    1
     5    25    26    1
     6    26    29    1
     7    29    30   ar
     8    30    31   ar
     9    31    32   ar
    10    32    35    1
    11    35    36   am
    12    35    37    2
    13    32    33   ar
    14    33    34   ar
    15    26    27    1
    16    27    28    1
    17     4     5    1
    18     5     6    1
    19     6     7    1
    20     7     8    1
    21     8     9    2
    22     8    10    2
    23     8    11    1
    24    11    12   ar
    25    12    13   ar
    26    13    14   ar
    27    14    17    1
    28    17    18    1
    29    17    19    1
    30    17    21    1
    31    21    22    1
    32    21    23    1
    33    21    24    1
    34    14    15   ar
    35    15    16   ar
    36     7     2    1
    37    16    11   ar
    38    28    26    1
    39    34    29   ar
    40    36    38    1
    41    36    39    1
    42    19    20    1
@<TRIPOS>MOLECULE
*****
 39 42 0 0 0
SMALL
GASTEIGER

@<TRIPOS>ATOM
      1 C         139.5074  138.7501  162.3524 C.3     1  UNL1        0.0206
      2 C         140.8945  138.5435  161.8202 C.3     1  UNL1        0.0956
      3 C         141.0992  138.1900  160.3769 C.3     1  UNL1        0.0900
      4 N         142.4863  137.9835  159.8447 N.3     1  UNL1       -0.2700
      5 C         143.6687  138.1303  160.7558 C.3     1  UNL1        0.0915
      6 C         143.4641  138.4838  162.1991 C.3     1  UNL1        0.1131
      7 N         142.0770  138.6904  162.7313 N.3     1  UNL1       -0.1541
      8 S         141.8724  139.0439  164.1747 S.O2    1  UNL1        0.0633
      9 O         142.0462  140.4965  163.8435 O.2     1  UNL1       -0.1528
     10 O         141.6986  137.5913  164.5058 O.2     1  UNL1       -0.1528
     11 C         141.6678  139.3974  165.6179 C.ar    1  UNL1        0.1222
     12 C         142.8116  139.2996  166.5835 C.ar    1  UNL1        0.0197
     13 C         142.6070  139.6532  168.0268 C.ar    1  UNL1       -0.0004
     14 C         141.2586  140.1044  168.5046 C.ar    1  UNL1        0.0099
     15 C         140.1148  140.2022  167.5391 C.ar    1  UNL1       -0.0004
     16 C         140.3194  139.8486  166.0958 C.ar    1  UNL1        0.0197
     17 C         141.0540  140.4579  169.9479 C.3     1  UNL1        0.1945
     18 C         140.8494  140.8115  171.3912 C.3     1  UNL1        0.0428
     19 O         141.5349  139.0952  170.3498 O.3     1  UNL1       -0.3751
     20 H         141.7633  138.5859  169.5565 H       1  UNL1        0.2110
     21 C         140.5731  141.8207  169.5459 C.3     1  UNL1        0.4230
     22 F         140.0922  143.1835  169.1439 F       1  UNL1       -0.1673
     23 F         141.7921  142.4817  168.9740 F       1  UNL1       -0.1673
     24 F         139.1968  141.4793  170.0352 F       1  UNL1       -0.1673
     25 C         142.6909  137.6300  158.4013 C.3     1  UNL1        0.0762
     26 C         142.1020  138.4950  157.3266 C.3     1  UNL1        0.0336
     27 C         141.1221  139.0227  156.3209 C.3     1  UNL1        0.0058
     28 C         140.7717  137.8243  157.1521 C.3     1  UNL1        0.0058
     29 C         143.2278  139.4661  157.1277 C.ar    1  UNL1       -0.0215
     30 C         143.3568  140.6592  158.0276 C.ar    1  UNL1       -0.0041
     31 C         144.4826  141.6303  157.8288 C.ar    1  UNL1        0.0042
     32 C         145.4794  141.4082  156.7301 C.ar    1  UNL1        0.0531
     33 C         145.3504  140.2151  155.8302 C.ar    1  UNL1        0.0042
     34 C         144.2246  139.2440  156.0291 C.ar    1  UNL1       -0.0041
     35 C         146.6052  142.3793  156.5313 C.2     1  UNL1        0.2427
     36 N         147.1358  143.1612  157.6963 N.am    1  UNL1       -0.3253
     37 O         147.2005  142.5686  155.1675 O.2     1  UNL1       -0.2704
     38 H         146.7452  143.0370  158.5914 H       1  UNL1        0.1453
     39 H         147.8747  143.7986  157.5658 H       1  UNL1        0.1453
@<TRIPOS>BOND
     1     2     1    1
     2     2     3    1
     3     3     4    1
     4     4    25    1
     5    25    26    1
     6    26    29    1
     7    29    30   ar
     8    30    31   ar
     9    31    32   ar
    10    32    35    1
    11    35    36   am
    12    35    37    2
    13    32    33   ar
    14    33    34   ar
    15    26    27    1
    16    27    28    1
    17     4     5    1
    18     5     6    1
    19     6     7    1
    20     7     8    1
    21     8     9    2
    22     8    10    2
    23     8    11    1
    24    11    12   ar
    25    12    13   ar
    26    13    14   ar
    27    14    17    1
    28    17    18    1
    29    17    19    1
    30    17    21    1
    31    21    22    1
    32    21    23    1
    33    21    24    1
    34    14    15   ar
    35    15    16   ar
    36     7     2    1
    37    16    11   ar
    38    28    26    1
    39    34    29   ar
    40    36    38    1
    41    36    39    1
    42    19    20    1
@<TRIPOS>MOLECULE
*****
 39 42 0 0 0
SMALL
GASTEIGER

@<TRIPOS>ATOM
      1 C         144.1374  143.2374  161.7617 C.3     1  UNL1        0.0206
      2 C         142.7685  142.7993  161.3324 C.3     1  UNL1        0.0956
      3 C         141.6316  142.8255  162.3103 C.3     1  UNL1        0.0900
      4 N         140.2627  142.3874  161.8810 N.3     1  UNL1       -0.2700
      5 C         140.0309  141.9231  160.4736 C.3     1  UNL1        0.0915
      6 C         141.1679  141.8970  159.4956 C.3     1  UNL1        0.1131
      7 N         142.5367  142.3351  159.9250 N.3     1  UNL1       -0.1541
      8 S         143.6737  142.3090  158.9469 S.O2    1  UNL1        0.0633
      9 O         143.3916  143.7360  158.5808 O.2     1  UNL1       -0.1528
     10 O         143.9559  140.8820  159.3130 O.2     1  UNL1       -0.1528
     11 C         144.8107  142.2829  157.9689 C.ar    1  UNL1        0.1222
     12 C         144.6304  141.6390  156.6262 C.ar    1  UNL1        0.0197
     13 C         145.7674  141.6129  155.6481 C.ar    1  UNL1       -0.0004
     14 C         147.0847  142.2307  156.0128 C.ar    1  UNL1        0.0099
     15 C         147.2650  142.8746  157.3555 C.ar    1  UNL1       -0.0004
     16 C         146.1281  142.9007  158.3335 C.ar    1  UNL1        0.0197
     17 C         148.2216  142.2046  155.0347 C.3     1  UNL1        0.1945
     18 C         149.3586  142.1786  154.0566 C.3     1  UNL1        0.0428
     19 O         149.0774  141.5044  156.0483 O.3     1  UNL1       -0.3751
     20 H         148.5687  141.3694  156.8631 H       1  UNL1        0.2110
     21 C         147.3658  142.9048  154.0212 C.3     1  UNL1        0.4230
     22 F         146.5100  143.6051  153.0077 F       1  UNL1       -0.1673
     23 F         147.1705  144.2763  154.5964 F       1  UNL1       -0.1673
     24 F         147.3537  141.6659  153.1756 F       1  UNL1       -0.1673
     25 C         139.1257  142.4135  162.8591 C.3     1  UNL1        0.0762
     26 C         139.0890  143.4541  163.9388 C.3     1  UNL1        0.0336
     27 C         138.9233  144.7868  164.6069 C.3     1  UNL1        0.0058
     28 C         138.7048  144.6566  163.1287 C.3     1  UNL1        0.0058
     29 C         139.4605  142.6129  165.1239 C.ar    1  UNL1       -0.0215
     30 C         139.0047  141.1860  165.2033 C.ar    1  UNL1       -0.0041
     31 C         139.3761  140.3449  166.3884 C.ar    1  UNL1        0.0042
     32 C         140.2033  140.9306  167.4941 C.ar    1  UNL1        0.0531
     33 C         140.6591  142.3575  167.4147 C.ar    1  UNL1        0.0042
     34 C         140.2877  143.1986  166.2296 C.ar    1  UNL1       -0.0041
     35 C         140.5748  140.0894  168.6792 C.2     1  UNL1        0.2427
     36 N         141.9931  139.6369  168.8627 N.am    1  UNL1       -0.3253
     37 O         139.5280  139.7008  169.6808 O.2     1  UNL1       -0.2704
     38 H         142.6801  139.8919  168.2053 H       1  UNL1        0.1453
     39 H         142.2369  139.0848  169.6405 H       1  UNL1        0.1453
@<TRIPOS>BOND
     1     2     1    1
     2     2     3    1
     3     3     4    1
     4     4    25    1
     5    25    26    1
     6    26    29    1
     7    29    30   ar
     8    30    31   ar
     9    31    32   ar
    10    32    35    1
    11    35    36   am
    12    35    37    2
    13    32    33   ar
    14    33    34   ar
    15    26    27    1
    16    27    28    1
    17     4     5    1
    18     5     6    1
    19     6     7    1
    20     7     8    1
    21     8     9    2
    22     8    10    2
    23     8    11    1
    24    11    12   ar
    25    12    13   ar
    26    13    14   ar
    27    14    17    1
    28    17    18    1
    29    17    19    1
    30    17    21    1
    31    21    22    1
    32    21    23    1
    33    21    24    1
    34    14    15   ar
    35    15    16   ar
    36     7     2    1
    37    16    11   ar
    38    28    26    1
    39    34    29   ar
    40    36    38    1
    41    36    39    1
    42    19    20    1
@<TRIPOS>MOLECULE
*****
 39 42 0 0 0
SMALL
GASTEIGER

@<TRIPOS>ATOM
      1 C         143.5694  138.1575  160.7844 C.3     1  UNL1        0.0206
      2 C         142.2357  138.8400  160.7113 C.3     1  UNL1        0.0956
      3 C         141.1288  138.4242  161.6342 C.3     1  UNL1        0.0900
      4 N         139.7951  139.1067  161.5611 N.3     1  UNL1       -0.2700
      5 C         139.5683  140.2050  160.5650 C.3     1  UNL1        0.0915
      6 C         140.6752  140.6208  159.6421 C.3     1  UNL1        0.1131
      7 N         142.0089  139.9383  159.7153 N.3     1  UNL1       -0.1541
      8 S         143.1158  140.3542  158.7923 S.O2    1  UNL1        0.0633
      9 O         142.6334  139.3685  157.7697 O.2     1  UNL1       -0.1528
     10 O         143.5982  141.3399  159.8148 O.2     1  UNL1       -0.1528
     11 C         144.2227  140.7700  157.8693 C.ar    1  UNL1        0.1222
     12 C         144.4964  139.9811  156.6232 C.ar    1  UNL1        0.0197
     13 C         145.6033  140.3969  155.7002 C.ar    1  UNL1       -0.0004
     14 C         146.4364  141.6017  156.0233 C.ar    1  UNL1        0.0099
     15 C         146.1627  142.3906  157.2694 C.ar    1  UNL1       -0.0004
     16 C         145.0558  141.9748  158.1923 C.ar    1  UNL1        0.0197
     17 C         147.5433  142.0175  155.1003 C.3     1  UNL1        0.1945
     18 C         148.6502  142.4333  154.1773 C.3     1  UNL1        0.0428
     19 O         148.5426  141.7873  156.1950 O.3     1  UNL1       -0.3751
     20 H         148.0831  141.4842  156.9937 H       1  UNL1        0.2110
     21 C         146.5440  142.2477  154.0056 C.3     1  UNL1        0.4230
     22 F         145.5446  142.4779  152.9109 F       1  UNL1       -0.1673
     23 F         145.7153  143.3937  154.5056 F       1  UNL1       -0.1673
     24 F         147.1488  141.1239  153.2172 F       1  UNL1       -0.1673
     25 C         138.6882  138.6908  162.4841 C.3     1  UNL1        0.0762
     26 C         138.8898  138.7457  163.9695 C.3     1  UNL1        0.0336
     27 C         139.0671  138.2848  165.3858 C.3     1  UNL1        0.0058
     28 C         138.8899  137.2797  164.2867 C.3     1  UNL1        0.0058
     29 C         138.9596  140.2309  164.1682 C.ar    1  UNL1       -0.0215
     30 C         137.7360  141.0736  163.9615 C.ar    1  UNL1       -0.0041
     31 C         137.8059  142.5587  164.1602 C.ar    1  UNL1        0.0042
     32 C         139.0993  143.2011  164.5655 C.ar    1  UNL1        0.0531
     33 C         140.3229  142.3584  164.7722 C.ar    1  UNL1        0.0042
     34 C         140.2530  140.8733  164.5735 C.ar    1  UNL1       -0.0041
     35 C         139.1692  144.6863  164.7642 C.2     1  UNL1        0.2427
     36 N         140.0622  145.5184  163.8924 N.am    1  UNL1       -0.3253
     37 O         138.3460  145.3394  165.8347 O.2     1  UNL1       -0.2704
     38 H         140.6025  145.0898  163.1898 H       1  UNL1        0.1453
     39 H         140.1081  146.4931  164.0228 H       1  UNL1        0.1453
@<TRIPOS>BOND
     1     2     1    1
     2     2     3    1
     3     3     4    1
     4     4    25    1
     5    25    26    1
     6    26    29    1
     7    29    30   ar
     8    30    31   ar
     9    31    32   ar
    10    32    35    1
    11    35    36   am
    12    35    37    2
    13    32    33   ar
    14    33    34   ar
    15    26    27    1
    16    27    28    1
    17     4     5    1
    18     5     6    1
    19     6     7    1
    20     7     8    1
    21     8     9    2
    22     8    10    2
    23     8    11    1
    24    11    12   ar
    25    12    13   ar
    26    13    14   ar
    27    14    17    1
    28    17    18    1
    29    17    19    1
    30    17    21    1
    31    21    22    1
    32    21    23    1
    33    21    24    1
    34    14    15   ar
    35    15    16   ar
    36     7     2    1
    37    16    11   ar
    38    28    26    1
    39    34    29   ar
    40    36    38    1
    41    36    39    1
    42    19    20    1
@<TRIPOS>MOLECULE
*****
 39 42 0 0 0
SMALL
GASTEIGER

@<TRIPOS>ATOM
      1 C         144.3975  139.8811  162.3832 C.3     1  UNL1        0.0206
      2 C         143.0181  140.4689  162.3419 C.3     1  UNL1        0.0956
      3 C         142.1088  140.3322  163.5270 C.3     1  UNL1        0.0900
      4 N         140.7294  140.9200  163.4858 N.3     1  UNL1       -0.2700
      5 C         140.2593  141.6445  162.2594 C.3     1  UNL1        0.0915
      6 C         141.1685  141.7812  161.0743 C.3     1  UNL1        0.1131
      7 N         142.5479  141.1934  161.1156 N.3     1  UNL1       -0.1541
      8 S         143.4572  141.3302  159.9304 S.O2    1  UNL1        0.0633
      9 O         142.9218  140.0454  159.3714 O.2     1  UNL1       -0.1528
     10 O         143.9927  142.6150  160.4894 O.2     1  UNL1       -0.1528
     11 C         144.3665  141.4669  158.7453 C.ar    1  UNL1        0.1222
     12 C         144.2673  140.4942  157.6077 C.ar    1  UNL1        0.0197
     13 C         145.1766  140.6310  156.4226 C.ar    1  UNL1       -0.0004
     14 C         146.1850  141.7404  156.3750 C.ar    1  UNL1        0.0099
     15 C         146.2841  142.7131  157.5126 C.ar    1  UNL1       -0.0004
     16 C         145.3749  142.5764  158.6977 C.ar    1  UNL1        0.0197
     17 C         147.0942  141.8771  155.1899 C.3     1  UNL1        0.1945
     18 C         148.0035  142.0139  154.0047 C.3     1  UNL1        0.0428
     19 O         148.2871  141.7573  156.0913 O.3     1  UNL1       -0.3751
     20 H         147.9899  141.6481  157.0081 H       1  UNL1        0.2110
     21 C         145.9013  141.9970  154.2885 C.3     1  UNL1        0.4230
     22 F         144.7083  142.1169  153.3871 F       1  UNL1       -0.1673
     23 F         145.2627  143.2899  154.7015 F       1  UNL1       -0.1673
     24 F         146.2619  140.6943  153.6380 F       1  UNL1       -0.1673
     25 C         139.8201  140.7832  164.6709 C.3     1  UNL1        0.0762
     26 C         139.5837  139.4344  165.2831 C.3     1  UNL1        0.0336
     27 C         139.1409  138.0081  165.4232 C.3     1  UNL1        0.0058
     28 C         138.9075  138.7428  164.1366 C.3     1  UNL1        0.0058
     29 C         140.1778  139.6574  166.6423 C.ar    1  UNL1       -0.0215
     30 C         139.2940  140.0328  167.7947 C.ar    1  UNL1       -0.0041
     31 C         139.8881  140.2559  169.1538 C.ar    1  UNL1        0.0042
     32 C         141.3659  140.1035  169.3606 C.ar    1  UNL1        0.0531
     33 C         142.2497  139.7280  168.2081 C.ar    1  UNL1        0.0042
     34 C         141.6556  139.5050  166.8490 C.ar    1  UNL1       -0.0041
     35 C         141.9600  140.3265  170.7197 C.2     1  UNL1        0.2427
     36 N         143.3489  139.8454  171.0193 N.am    1  UNL1       -0.3253
     37 O         141.1654  141.0307  171.7793 O.2     1  UNL1       -0.2704
     38 H         143.8705  139.3833  170.3238 H       1  UNL1        0.1453
     39 H         143.7388  139.9918  171.9113 H       1  UNL1        0.1453
@<TRIPOS>BOND
     1     2     1    1
     2     2     3    1
     3     3     4    1
     4     4    25    1
     5    25    26    1
     6    26    29    1
     7    29    30   ar
     8    30    31   ar
     9    31    32   ar
    10    32    35    1
    11    35    36   am
    12    35    37    2
    13    32    33   ar
    14    33    34   ar
    15    26    27    1
    16    27    28    1
    17     4     5    1
    18     5     6    1
    19     6     7    1
    20     7     8    1
    21     8     9    2
    22     8    10    2
    23     8    11    1
    24    11    12   ar
    25    12    13   ar
    26    13    14   ar
    27    14    17    1
    28    17    18    1
    29    17    19    1
    30    17    21    1
    31    21    22    1
    32    21    23    1
    33    21    24    1
    34    14    15   ar
    35    15    16   ar
    36     7     2    1
    37    16    11   ar
    38    28    26    1
    39    34    29   ar
    40    36    38    1
    41    36    39    1
    42    19    20    1
@<TRIPOS>MOLECULE
*****
 39 42 0 0 0
SMALL
GASTEIGER

@<TRIPOS>ATOM
      1 C         145.2701  141.7346  163.1294 C.3     1  UNL1        0.0206
      2 C         144.2427  142.2860  162.1858 C.3     1  UNL1        0.0956
      3 C         144.5743  142.4580  160.7331 C.3     1  UNL1        0.0900
      4 N         143.5469  143.0095  159.7895 N.3     1  UNL1       -0.2700
      5 C         142.1879  143.3889  160.2986 C.3     1  UNL1        0.0915
      6 C         141.8564  143.2169  161.7514 C.3     1  UNL1        0.1131
      7 N         142.8838  142.6655  162.6950 N.3     1  UNL1       -0.1541
      8 S         142.5522  142.4935  164.1477 S.O2    1  UNL1        0.0633
      9 O         142.0696  141.1002  163.8726 O.2     1  UNL1       -0.1528
     10 O         143.0348  143.8868  164.4229 O.2     1  UNL1       -0.1528
     11 C         142.2205  142.3214  165.6004 C.ar    1  UNL1        0.1222
     12 C         143.3034  141.9845  166.5822 C.ar    1  UNL1        0.0197
     13 C         142.9718  141.8125  168.0349 C.ar    1  UNL1       -0.0004
     14 C         141.5572  141.9774  168.5059 C.ar    1  UNL1        0.0099
     15 C         140.4743  142.3143  167.5242 C.ar    1  UNL1       -0.0004
     16 C         140.8059  142.4863  166.0715 C.ar    1  UNL1        0.0197
     17 C         141.2256  141.8053  169.9586 C.3     1  UNL1        0.1945
     18 C         140.8940  141.6333  171.4114 C.3     1  UNL1        0.0428
     19 O         141.6943  140.3818  169.8970 O.3     1  UNL1       -0.3751
     20 H         141.9975  140.1798  168.9980 H       1  UNL1        0.2110
     21 C         140.7569  143.2289  170.0202 C.3     1  UNL1        0.4230
     22 F         140.2883  144.6525  170.0818 F       1  UNL1       -0.1673
     23 F         142.0222  144.0312  169.9455 F       1  UNL1       -0.1673
     24 F         139.3360  142.7571  170.1126 F       1  UNL1       -0.1673
     25 C         143.8785  143.1815  158.3367 C.3     1  UNL1        0.0762
     26 C         144.4307  142.0286  157.5519 C.3     1  UNL1        0.0336
     27 C         145.4162  141.1583  156.8299 C.3     1  UNL1        0.0058
     28 C         145.8698  142.4415  157.4601 C.3     1  UNL1        0.0058
     29 C         143.1835  141.2152  157.3712 C.ar    1  UNL1       -0.0215
     30 C         141.9915  141.8127  156.6840 C.ar    1  UNL1       -0.0041
     31 C         140.7442  140.9994  156.5033 C.ar    1  UNL1        0.0042
     32 C         140.6888  139.5886  157.0097 C.ar    1  UNL1        0.0531
     33 C         141.8808  138.9911  157.6969 C.ar    1  UNL1        0.0042
     34 C         143.1281  139.8044  157.8776 C.ar    1  UNL1       -0.0041
     35 C         139.4415  138.7752  156.8289 C.2     1  UNL1        0.2427
     36 N         139.4969  137.2809  156.9475 N.am    1  UNL1       -0.3253
     37 O         138.1389  139.4560  156.5296 O.2     1  UNL1       -0.2704
     38 H         140.3518  136.8340  157.1440 H       1  UNL1        0.1453
     39 H         138.6783  136.7470  156.8289 H       1  UNL1        0.1453
@<TRIPOS>BOND
     1     2     1    1
     2     2     3    1
     3     3     4    1
     4     4    25    1
     5    25    26    1
     6    26    29    1
     7    29    30   ar
     8    30    31   ar
     9    31    32   ar
    10    32    35    1
    11    35    36   am
    12    35    37    2
    13    32    33   ar
    14    33    34   ar
    15    26    27    1
    16    27    28    1
    17     4     5    1
    18     5     6    1
    19     6     7    1
    20     7     8    1
    21     8     9    2
    22     8    10    2
    23     8    11    1
    24    11    12   ar
    25    12    13   ar
    26    13    14   ar
    27    14    17    1
    28    17    18    1
    29    17    19    1
    30    17    21    1
    31    21    22    1
    32    21    23    1
    33    21    24    1
    34    14    15   ar
    35    15    16   ar
    36     7     2    1
    37    16    11   ar
    38    28    26    1
    39    34    29   ar
    40    36    38    1
    41    36    39    1
    42    19    20    1
