@<TRIPOS>MOLECULE
*****
 26 29 0 0 0
SMALL
GASTEIGER

@<TRIPOS>ATOM
      1 O         144.1054  138.0935  166.9702 O.2     1  UNL1       -0.2698
      2 C         142.8970  138.7248  166.3448 C.2     1  UNL1        0.2519
      3 N         142.0827  139.7170  167.1209 N.am    1  UNL1       -0.2778
      4 C         142.5028  138.3638  164.9432 C.ar    1  UNL1        0.0880
      5 C         141.3147  137.4805  164.7022 C.ar    1  UNL1        0.0076
      6 C         140.9205  137.1196  163.3007 C.ar    1  UNL1        0.0003
      7 C         141.7145  137.6419  162.1402 C.ar    1  UNL1        0.0031
      8 C         142.9026  138.5252  162.3812 C.ar    1  UNL1        0.0376
      9 C         143.2968  138.8861  163.7827 C.ar    1  UNL1        0.1496
     10 O         144.4849  139.7695  164.0238 O.3     1  UNL1       -0.4533
     11 C         144.3484  141.2586  163.9069 C.ar    1  UNL1        0.1453
     12 C         144.1095  142.0885  165.1334 C.ar    1  UNL1        0.0375
     13 C         143.9729  143.5777  165.0165 C.ar    1  UNL1        0.0031
     14 C         144.0753  144.2370  163.6731 C.ar    1  UNL1        0.0002
     15 C         144.3141  143.4072  162.4466 C.ar    1  UNL1        0.0031
     16 C         144.4507  141.9180  162.5635 C.ar    1  UNL1        0.0375
     17 C         142.4769  140.0780  168.5224 C.3     1  UNL1        0.0926
     18 C         143.0358  141.3963  168.9693 C.3     1  UNL1        0.0383
     19 C         143.2857  141.3172  170.4462 C.3     1  UNL1        0.0704
     20 N         142.8812  139.9499  170.9122 N.3     1  UNL1       -0.2960
     21 C         142.3814  139.1841  169.7232 C.3     1  UNL1        0.0887
     22 H         142.1415  140.0268  171.6103 H       1  UNL1        0.1233
     23 C         140.8742  140.3483  166.4955 C.3     1  UNL1        0.0756
     24 C         139.3940  140.1221  166.5834 C.3     1  UNL1        0.0199
     25 C         139.1653  141.2411  165.6109 C.3     1  UNL1        0.0034
     26 C         140.6455  141.4672  165.5230 C.3     1  UNL1        0.0199
@<TRIPOS>BOND
     1     1     2    2
     2     2     4    1
     3     4     5   ar
     4     5     6   ar
     5     6     7   ar
     6     7     8   ar
     7     8     9   ar
     8     9    10    1
     9    10    11    1
    10    11    12   ar
    11    12    13   ar
    12    13    14   ar
    13    14    15   ar
    14    15    16   ar
    15     2     3   am
    16     3    23    1
    17    23    24    1
    18    24    25    1
    19    25    26    1
    20    17     3    1
    21    17    18    1
    22    18    19    1
    23    19    20    1
    24    20    21    1
    25     9     4   ar
    26    16    11   ar
    27    26    23    1
    28    21    17    1
    29    20    22    1
@<TRIPOS>MOLECULE
*****
 26 29 0 0 0
SMALL
GASTEIGER

@<TRIPOS>ATOM
      1 O         138.3360  139.0866  167.7686 O.2     1  UNL1       -0.2698
      2 C         139.5061  139.2832  166.8509 C.2     1  UNL1        0.2519
      3 N         140.7713  139.8992  167.3702 N.am    1  UNL1       -0.2778
      4 C         139.4109  138.8638  165.4138 C.ar    1  UNL1        0.0880
      5 C         140.1711  137.6643  164.9307 C.ar    1  UNL1        0.0076
      6 C         140.0759  137.2449  163.4937 C.ar    1  UNL1        0.0003
      7 C         139.2207  138.0250  162.5398 C.ar    1  UNL1        0.0031
      8 C         138.4605  139.2245  163.0229 C.ar    1  UNL1        0.0376
      9 C         138.5557  139.6439  164.4599 C.ar    1  UNL1        0.1496
     10 O         137.7955  140.8434  164.9431 O.3     1  UNL1       -0.4533
     11 C         138.2316  142.2205  164.5388 C.ar    1  UNL1        0.1453
     12 C         139.2849  142.9365  165.3313 C.ar    1  UNL1        0.0375
     13 C         139.7211  144.3136  164.9270 C.ar    1  UNL1        0.0031
     14 C         139.1038  144.9747  163.7302 C.ar    1  UNL1        0.0002
     15 C         138.0506  144.2586  162.9379 C.ar    1  UNL1        0.0031
     16 C         137.6145  142.8816  163.3421 C.ar    1  UNL1        0.0375
     17 C         140.8665  140.3186  168.8072 C.3     1  UNL1        0.0926
     18 C         140.3031  141.5772  169.3974 C.3     1  UNL1        0.0383
     19 C         140.6301  141.5895  170.8613 C.3     1  UNL1        0.0704
     20 N         141.3957  140.3385  171.1758 N.3     1  UNL1       -0.2960
     21 C         141.5418  139.5530  169.9062 C.3     1  UNL1        0.0887
     22 H         140.8884  139.7869  171.8677 H       1  UNL1        0.1233
     23 C         141.9414  140.0958  166.4524 C.3     1  UNL1        0.0756
     24 C         142.3685  141.1664  165.4925 C.3     1  UNL1        0.0199
     25 C         143.5962  140.3737  165.1546 C.3     1  UNL1        0.0034
     26 C         143.1692  139.3031  166.1144 C.3     1  UNL1        0.0199
@<TRIPOS>BOND
     1     1     2    2
     2     2     4    1
     3     4     5   ar
     4     5     6   ar
     5     6     7   ar
     6     7     8   ar
     7     8     9   ar
     8     9    10    1
     9    10    11    1
    10    11    12   ar
    11    12    13   ar
    12    13    14   ar
    13    14    15   ar
    14    15    16   ar
    15     2     3   am
    16     3    23    1
    17    23    24    1
    18    24    25    1
    19    25    26    1
    20    17     3    1
    21    17    18    1
    22    18    19    1
    23    19    20    1
    24    20    21    1
    25     9     4   ar
    26    16    11   ar
    27    26    23    1
    28    21    17    1
    29    20    22    1
@<TRIPOS>MOLECULE
*****
 26 29 0 0 0
SMALL
GASTEIGER

@<TRIPOS>ATOM
      1 O         143.6522  142.3861  166.5306 O.2     1  UNL1       -0.2698
      2 C         142.1622  142.5102  166.4106 C.2     1  UNL1        0.2519
      3 N         141.5584  143.1513  165.1964 N.am    1  UNL1       -0.2778
      4 C         141.2759  141.9931  167.5048 C.ar    1  UNL1        0.0880
      5 C         140.6889  142.9429  168.5064 C.ar    1  UNL1        0.0076
      6 C         139.8027  142.4258  169.6006 C.ar    1  UNL1        0.0003
      7 C         139.5035  140.9588  169.6931 C.ar    1  UNL1        0.0031
      8 C         140.0905  140.0090  168.6915 C.ar    1  UNL1        0.0376
      9 C         140.9767  140.5261  167.5974 C.ar    1  UNL1        0.1496
     10 O         141.5638  139.5763  166.5957 O.3     1  UNL1       -0.4533
     11 C         140.8151  139.2582  165.3355 C.ar    1  UNL1        0.1453
     12 C         139.5110  138.5200  165.4038 C.ar    1  UNL1        0.0375
     13 C         138.7624  138.2019  164.1435 C.ar    1  UNL1        0.0031
     14 C         139.3177  138.6220  162.8149 C.ar    1  UNL1        0.0002
     15 C         140.6217  139.3602  162.7466 C.ar    1  UNL1        0.0031
     16 C         141.3704  139.6783  164.0069 C.ar    1  UNL1        0.0375
     17 C         142.4445  143.6684  164.1022 C.3     1  UNL1        0.0926
     18 C         143.1497  142.8371  163.0719 C.3     1  UNL1        0.0383
     19 C         143.9221  143.7625  162.1791 C.3     1  UNL1        0.0704
     20 N         143.6943  145.1658  162.6577 N.3     1  UNL1       -0.2960
     21 C         142.7811  145.1076  163.8463 C.3     1  UNL1        0.0887
     22 H         143.2633  145.7185  161.9167 H       1  UNL1        0.1233
     23 C         140.0683  143.2754  165.0764 C.3     1  UNL1        0.0756
     24 C         139.0771  144.3843  165.2714 C.3     1  UNL1        0.0199
     25 C         137.9610  143.4508  164.9067 C.3     1  UNL1        0.0034
     26 C         138.9522  142.3419  164.7118 C.3     1  UNL1        0.0199
@<TRIPOS>BOND
     1     1     2    2
     2     2     4    1
     3     4     5   ar
     4     5     6   ar
     5     6     7   ar
     6     7     8   ar
     7     8     9   ar
     8     9    10    1
     9    10    11    1
    10    11    12   ar
    11    12    13   ar
    12    13    14   ar
    13    14    15   ar
    14    15    16   ar
    15     2     3   am
    16     3    23    1
    17    23    24    1
    18    24    25    1
    19    25    26    1
    20    17     3    1
    21    17    18    1
    22    18    19    1
    23    19    20    1
    24    20    21    1
    25     9     4   ar
    26    16    11   ar
    27    26    23    1
    28    21    17    1
    29    20    22    1
@<TRIPOS>MOLECULE
*****
 26 29 0 0 0
SMALL
GASTEIGER

@<TRIPOS>ATOM
      1 O         139.5796  139.8067  168.1160 O.2     1  UNL1       -0.2698
      2 C         140.4131  140.1693  166.9228 C.2     1  UNL1        0.2519
      3 N         141.2773  141.3949  166.9561 N.am    1  UNL1       -0.2778
      4 C         140.3825  139.3063  165.6962 C.ar    1  UNL1        0.0880
      5 C         141.5003  138.3423  165.4294 C.ar    1  UNL1        0.0076
      6 C         141.4697  137.4793  164.2029 C.ar    1  UNL1        0.0003
      7 C         140.3212  137.5804  163.2433 C.ar    1  UNL1        0.0031
      8 C         139.2034  138.5444  163.5101 C.ar    1  UNL1        0.0376
      9 C         139.2341  139.4073  164.7366 C.ar    1  UNL1        0.1496
     10 O         138.1163  140.3714  165.0035 O.3     1  UNL1       -0.4533
     11 C         138.1187  141.7218  164.3507 C.ar    1  UNL1        0.1453
     12 C         137.8068  141.8488  162.8889 C.ar    1  UNL1        0.0375
     13 C         137.8092  143.1992  162.2360 C.ar    1  UNL1        0.0031
     14 C         138.1235  144.4228  163.0449 C.ar    1  UNL1        0.0002
     15 C         138.4353  144.2958  164.5066 C.ar    1  UNL1        0.0031
     16 C         138.4329  142.9453  165.1595 C.ar    1  UNL1        0.0375
     17 C         141.3079  142.2579  168.1825 C.3     1  UNL1        0.0926
     18 C         140.2344  143.2114  168.6167 C.3     1  UNL1        0.0383
     19 C         140.6805  143.8617  169.8927 C.3     1  UNL1        0.0704
     20 N         142.0297  143.3103  170.2471 N.3     1  UNL1       -0.2960
     21 C         142.4175  142.3191  169.1901 C.3     1  UNL1        0.0887
     22 H         141.9872  142.8486  171.1556 H       1  UNL1        0.1233
     23 C         142.1109  141.7575  165.7628 C.3     1  UNL1        0.0756
     24 C         143.5290  141.5062  165.3437 C.3     1  UNL1        0.0199
     25 C         143.2896  142.2703  164.0753 C.3     1  UNL1        0.0034
     26 C         141.8714  142.5216  164.4944 C.3     1  UNL1        0.0199
@<TRIPOS>BOND
     1     1     2    2
     2     2     4    1
     3     4     5   ar
     4     5     6   ar
     5     6     7   ar
     6     7     8   ar
     7     8     9   ar
     8     9    10    1
     9    10    11    1
    10    11    12   ar
    11    12    13   ar
    12    13    14   ar
    13    14    15   ar
    14    15    16   ar
    15     2     3   am
    16     3    23    1
    17    23    24    1
    18    24    25    1
    19    25    26    1
    20    17     3    1
    21    17    18    1
    22    18    19    1
    23    19    20    1
    24    20    21    1
    25     9     4   ar
    26    16    11   ar
    27    26    23    1
    28    21    17    1
    29    20    22    1
@<TRIPOS>MOLECULE
*****
 26 29 0 0 0
SMALL
GASTEIGER

@<TRIPOS>ATOM
      1 O         142.6917  139.6713  167.8149 O.2     1  UNL1       -0.2698
      2 C         141.6831  139.8000  166.7121 C.2     1  UNL1        0.2519
      3 N         140.3986  140.5365  166.9527 N.am    1  UNL1       -0.2778
      4 C         141.9588  139.1923  165.3687 C.ar    1  UNL1        0.0880
      5 C         141.1724  138.0007  164.9089 C.ar    1  UNL1        0.0076
      6 C         141.4482  137.3931  163.5655 C.ar    1  UNL1        0.0003
      7 C         142.5104  137.9771  162.6820 C.ar    1  UNL1        0.0031
      8 C         143.2969  139.1687  163.1418 C.ar    1  UNL1        0.0376
      9 C         143.0211  139.7763  164.4852 C.ar    1  UNL1        0.1496
     10 O         143.8075  140.9680  164.9451 O.3     1  UNL1       -0.4533
     11 C         143.4832  142.3319  164.4116 C.ar    1  UNL1        0.1453
     12 C         142.2171  143.0192  164.8297 C.ar    1  UNL1        0.0375
     13 C         141.8928  144.3831  164.2962 C.ar    1  UNL1        0.0031
     14 C         142.8346  145.0598  163.3448 C.ar    1  UNL1        0.0002
     15 C         144.1007  144.3725  162.9268 C.ar    1  UNL1        0.0031
     16 C         144.4250  143.0086  163.4602 C.ar    1  UNL1        0.0375
     17 C         140.1228  141.1442  168.2961 C.3     1  UNL1        0.0926
     18 C         140.5192  142.5214  168.7389 C.3     1  UNL1        0.0383
     19 C         140.0436  142.7098  170.1489 C.3     1  UNL1        0.0704
     20 N         139.3533  141.4489  170.5777 N.3     1  UNL1       -0.2960
     21 C         139.4023  140.4813  169.4325 C.3     1  UNL1        0.0887
     22 H         138.3830  141.6504  170.8193 H       1  UNL1        0.1233
     23 C         139.3900  140.6652  165.8499 C.3     1  UNL1        0.0756
     24 C         139.1618  141.6356  164.7291 C.3     1  UNL1        0.0199
     25 C         137.9635  140.8472  164.2904 C.3     1  UNL1        0.0034
     26 C         138.1917  139.8768  165.4112 C.3     1  UNL1        0.0199
@<TRIPOS>BOND
     1     1     2    2
     2     2     4    1
     3     4     5   ar
     4     5     6   ar
     5     6     7   ar
     6     7     8   ar
     7     8     9   ar
     8     9    10    1
     9    10    11    1
    10    11    12   ar
    11    12    13   ar
    12    13    14   ar
    13    14    15   ar
    14    15    16   ar
    15     2     3   am
    16     3    23    1
    17    23    24    1
    18    24    25    1
    19    25    26    1
    20    17     3    1
    21    17    18    1
    22    18    19    1
    23    19    20    1
    24    20    21    1
    25     9     4   ar
    26    16    11   ar
    27    26    23    1
    28    21    17    1
    29    20    22    1
@<TRIPOS>MOLECULE
*****
 26 29 0 0 0
SMALL
GASTEIGER

@<TRIPOS>ATOM
      1 O         142.4881  139.3387  167.4730 O.2     1  UNL1       -0.2698
      2 C         142.8373  140.3676  166.4390 C.2     1  UNL1        0.2519
      3 N         142.9657  141.8102  166.8297 N.am    1  UNL1       -0.2778
      4 C         143.0582  139.9540  165.0141 C.ar    1  UNL1        0.0880
      5 C         144.4166  139.5022  164.5663 C.ar    1  UNL1        0.0076
      6 C         144.6374  139.0886  163.1414 C.ar    1  UNL1        0.0003
      7 C         143.4999  139.1269  162.1644 C.ar    1  UNL1        0.0031
      8 C         142.1415  139.5787  162.6123 C.ar    1  UNL1        0.0376
      9 C         141.9207  139.9923  164.0371 C.ar    1  UNL1        0.1496
     10 O         140.5622  140.4442  164.4850 O.3     1  UNL1       -0.4533
     11 C         139.6463  139.4854  165.1862 C.ar    1  UNL1        0.1453
     12 C         139.4559  138.0989  164.6461 C.ar    1  UNL1        0.0375
     13 C         138.5400  137.1401  165.3473 C.ar    1  UNL1        0.0031
     14 C         137.8145  137.5677  166.5887 C.ar    1  UNL1        0.0002
     15 C         138.0049  138.9540  167.1287 C.ar    1  UNL1        0.0031
     16 C         138.9208  139.9129  166.4275 C.ar    1  UNL1        0.0375
     17 C         142.7448  142.2238  168.2545 C.3     1  UNL1        0.0926
     18 C         141.4539  142.7143  168.8401 C.3     1  UNL1        0.0383
     19 C         141.6873  143.0132  170.2914 C.3     1  UNL1        0.0704
     20 N         143.1225  142.7074  170.6027 N.3     1  UNL1       -0.2960
     21 C         143.7760  142.2196  169.3438 C.3     1  UNL1        0.0887
     22 H         143.1746  141.9859  171.3218 H       1  UNL1        0.1233
     23 C         143.3149  142.8391  165.7955 C.3     1  UNL1        0.0756
     24 C         142.5598  143.5578  164.7170 C.3     1  UNL1        0.0199
     25 C         143.8089  144.2941  164.3330 C.3     1  UNL1        0.0034
     26 C         144.5641  143.5754  165.4115 C.3     1  UNL1        0.0199
@<TRIPOS>BOND
     1     1     2    2
     2     2     4    1
     3     4     5   ar
     4     5     6   ar
     5     6     7   ar
     6     7     8   ar
     7     8     9   ar
     8     9    10    1
     9    10    11    1
    10    11    12   ar
    11    12    13   ar
    12    13    14   ar
    13    14    15   ar
    14    15    16   ar
    15     2     3   am
    16     3    23    1
    17    23    24    1
    18    24    25    1
    19    25    26    1
    20    17     3    1
    21    17    18    1
    22    18    19    1
    23    19    20    1
    24    20    21    1
    25     9     4   ar
    26    16    11   ar
    27    26    23    1
    28    21    17    1
    29    20    22    1
@<TRIPOS>MOLECULE
*****
 26 29 0 0 0
SMALL
GASTEIGER

@<TRIPOS>ATOM
      1 O         138.8198  141.5236  161.9313 O.2     1  UNL1       -0.2698
      2 C         139.4276  141.4261  163.2992 C.2     1  UNL1        0.2519
      3 N         140.2100  142.5783  163.8562 N.am    1  UNL1       -0.2778
      4 C         139.2530  140.1763  164.1101 C.ar    1  UNL1        0.0880
      5 C         138.2039  140.1172  165.1805 C.ar    1  UNL1        0.0076
      6 C         138.0293  138.8674  165.9914 C.ar    1  UNL1        0.0003
      7 C         138.9039  137.6767  165.7319 C.ar    1  UNL1        0.0031
      8 C         139.9530  137.7358  164.6615 C.ar    1  UNL1        0.0376
      9 C         140.1276  138.9855  163.8506 C.ar    1  UNL1        0.1496
     10 O         141.1767  139.0446  162.7801 O.3     1  UNL1       -0.4533
     11 C         142.5463  139.5659  163.1003 C.ar    1  UNL1        0.1453
     12 C         143.3802  138.8897  164.1479 C.ar    1  UNL1        0.0375
     13 C         144.7498  139.4110  164.4681 C.ar    1  UNL1        0.0031
     14 C         145.2855  140.6084  163.7406 C.ar    1  UNL1        0.0002
     15 C         144.4516  141.2845  162.6930 C.ar    1  UNL1        0.0031
     16 C         143.0820  140.7633  162.3728 C.ar    1  UNL1        0.0375
     17 C         140.3846  143.8281  163.0453 C.3     1  UNL1        0.0926
     18 C         139.4085  144.9633  162.9540 C.3     1  UNL1        0.0383
     19 C         139.9866  145.9989  162.0356 C.3     1  UNL1        0.0704
     20 N         141.3200  145.5037  161.5594 N.3     1  UNL1       -0.2960
     21 C         141.5660  144.1620  162.1834 C.3     1  UNL1        0.0887
     22 H         142.0521  146.1558  161.8408 H       1  UNL1        0.1233
     23 C         140.8178  142.4807  165.2241 C.3     1  UNL1        0.0756
     24 C         142.1249  141.9889  165.7714 C.3     1  UNL1        0.0199
     25 C         141.6772  142.3428  167.1586 C.3     1  UNL1        0.0034
     26 C         140.3700  142.8346  166.6113 C.3     1  UNL1        0.0199
@<TRIPOS>BOND
     1     1     2    2
     2     2     4    1
     3     4     5   ar
     4     5     6   ar
     5     6     7   ar
     6     7     8   ar
     7     8     9   ar
     8     9    10    1
     9    10    11    1
    10    11    12   ar
    11    12    13   ar
    12    13    14   ar
    13    14    15   ar
    14    15    16   ar
    15     2     3   am
    16     3    23    1
    17    23    24    1
    18    24    25    1
    19    25    26    1
    20    17     3    1
    21    17    18    1
    22    18    19    1
    23    19    20    1
    24    20    21    1
    25     9     4   ar
    26    16    11   ar
    27    26    23    1
    28    21    17    1
    29    20    22    1
@<TRIPOS>MOLECULE
*****
 26 29 0 0 0
SMALL
GASTEIGER

@<TRIPOS>ATOM
      1 O         140.9629  141.6427  160.8817 O.2     1  UNL1       -0.2698
      2 C         141.1330  141.7128  162.3703 C.2     1  UNL1        0.2519
      3 N         142.0942  140.7904  163.0597 N.am    1  UNL1       -0.2778
      4 C         140.3420  142.7055  163.1697 C.ar    1  UNL1        0.0880
      5 C         140.9781  143.9901  163.6114 C.ar    1  UNL1        0.0076
      6 C         140.1870  144.9827  164.4107 C.ar    1  UNL1        0.0003
      7 C         138.7599  144.6907  164.7683 C.ar    1  UNL1        0.0031
      8 C         138.1237  143.4061  164.3266 C.ar    1  UNL1        0.0376
      9 C         138.9148  142.4135  163.5273 C.ar    1  UNL1        0.1496
     10 O         138.2787  141.1288  163.0856 O.3     1  UNL1       -0.4533
     11 C         138.4360  139.8897  163.9161 C.ar    1  UNL1        0.1453
     12 C         138.0432  139.9022  165.3638 C.ar    1  UNL1        0.0375
     13 C         138.2005  138.6630  166.1943 C.ar    1  UNL1        0.0031
     14 C         138.7506  137.4114  165.5772 C.ar    1  UNL1        0.0002
     15 C         139.1434  137.3989  164.1296 C.ar    1  UNL1        0.0031
     16 C         138.9861  138.6380  163.2991 C.ar    1  UNL1        0.0375
     17 C         142.8852  139.7978  162.2604 C.3     1  UNL1        0.0926
     18 C         142.6522  138.3167  162.2145 C.3     1  UNL1        0.0383
     19 C         143.6711  137.7155  161.2924 C.3     1  UNL1        0.0704
     20 N         144.5340  138.8250  160.7684 N.3     1  UNL1       -0.2960
     21 C         144.0483  140.1119  161.3666 C.3     1  UNL1        0.0887
     22 H         144.4636  138.8676  159.7517 H       1  UNL1        0.1233
     23 C         142.2643  140.8606  164.5484 C.3     1  UNL1        0.0756
     24 C         143.1213  141.6638  165.4814 C.3     1  UNL1        0.0199
     25 C         142.5048  140.9598  166.6537 C.3     1  UNL1        0.0034
     26 C         141.6478  140.1566  165.7207 C.3     1  UNL1        0.0199
@<TRIPOS>BOND
     1     1     2    2
     2     2     4    1
     3     4     5   ar
     4     5     6   ar
     5     6     7   ar
     6     7     8   ar
     7     8     9   ar
     8     9    10    1
     9    10    11    1
    10    11    12   ar
    11    12    13   ar
    12    13    14   ar
    13    14    15   ar
    14    15    16   ar
    15     2     3   am
    16     3    23    1
    17    23    24    1
    18    24    25    1
    19    25    26    1
    20    17     3    1
    21    17    18    1
    22    18    19    1
    23    19    20    1
    24    20    21    1
    25     9     4   ar
    26    16    11   ar
    27    26    23    1
    28    21    17    1
    29    20    22    1
@<TRIPOS>MOLECULE
*****
 26 29 0 0 0
SMALL
GASTEIGER

@<TRIPOS>ATOM
      1 O         140.3322  143.0693  167.6550 O.2     1  UNL1       -0.2698
      2 C         139.9260  141.9793  166.7080 C.2     1  UNL1        0.2519
      3 N         139.8435  140.5607  167.1882 N.am    1  UNL1       -0.2778
      4 C         139.6022  142.3080  165.2806 C.ar    1  UNL1        0.0880
      5 C         138.2313  142.0297  164.7393 C.ar    1  UNL1        0.0076
      6 C         137.9076  142.3583  163.3120 C.ar    1  UNL1        0.0003
      7 C         138.9548  142.9652  162.4261 C.ar    1  UNL1        0.0031
      8 C         140.3257  143.2436  162.9674 C.ar    1  UNL1        0.0376
      9 C         140.6494  142.9149  164.3946 C.ar    1  UNL1        0.1496
     10 O         142.0204  143.1932  164.9360 O.3     1  UNL1       -0.4533
     11 C         143.1452  142.2415  164.6549 C.ar    1  UNL1        0.1453
     12 C         142.9880  140.7822  164.9643 C.ar    1  UNL1        0.0375
     13 C         144.1128  139.8305  164.6831 C.ar    1  UNL1        0.0031
     14 C         145.3948  140.3381  164.0925 C.ar    1  UNL1        0.0002
     15 C         145.5520  141.7974  163.7831 C.ar    1  UNL1        0.0031
     16 C         144.4272  142.7491  164.0643 C.ar    1  UNL1        0.0375
     17 C         140.1672  140.2320  168.6155 C.3     1  UNL1        0.0926
     18 C         141.5139  139.8383  169.1459 C.3     1  UNL1        0.0383
     19 C         141.3801  139.6023  170.6212 C.3     1  UNL1        0.0704
     20 N         139.9507  139.8502  171.0025 N.3     1  UNL1       -0.2960
     21 C         139.2011  140.2394  169.7629 C.3     1  UNL1        0.0887
     22 H         139.9010  140.6039  171.6881 H       1  UNL1        0.1233
     23 C         139.4372  139.4707  166.2411 C.3     1  UNL1        0.0756
     24 C         140.0987  138.7554  165.1006 C.3     1  UNL1        0.0199
     25 C         138.8626  137.9292  164.9018 C.3     1  UNL1        0.0034
     26 C         138.2011  138.6445  166.0423 C.3     1  UNL1        0.0199
@<TRIPOS>BOND
     1     1     2    2
     2     2     4    1
     3     4     5   ar
     4     5     6   ar
     5     6     7   ar
     6     7     8   ar
     7     8     9   ar
     8     9    10    1
     9    10    11    1
    10    11    12   ar
    11    12    13   ar
    12    13    14   ar
    13    14    15   ar
    14    15    16   ar
    15     2     3   am
    16     3    23    1
    17    23    24    1
    18    24    25    1
    19    25    26    1
    20    17     3    1
    21    17    18    1
    22    18    19    1
    23    19    20    1
    24    20    21    1
    25     9     4   ar
    26    16    11   ar
    27    26    23    1
    28    21    17    1
    29    20    22    1
