@<TRIPOS>MOLECULE
*****
 27 30 0 0 0
SMALL
GASTEIGER

@<TRIPOS>ATOM
      1 N         140.7714  139.8328  162.9597 N.ar    1  UNL1       -0.2189
      2 N         140.6931  141.0724  163.8006 N.ar    1  UNL1       -0.1709
      3 C         139.9241  141.0578  165.0884 C.ar    1  UNL1        0.0832
      4 C         139.2335  139.8034  165.5354 C.ar    1  UNL1        0.0202
      5 C         138.4645  139.7887  166.8231 C.ar    1  UNL1        0.0014
      6 C         137.7739  138.5344  167.2700 C.ar    1  UNL1        0.0000
      7 C         137.8523  137.2948  166.4291 C.ar    1  UNL1        0.0002
      8 C         138.6212  137.3095  165.1413 C.ar    1  UNL1        0.0048
      9 C         139.3118  138.5638  164.6944 C.ar    1  UNL1        0.0588
     10 C         140.0808  138.5785  163.4066 C.ar    1  UNL1        0.2762
     11 O         140.1592  137.3389  162.5657 O.2     1  UNL1       -0.2655
     12 C         142.7647  140.2993  157.0065 C.3     1  UNL1        0.0896
     13 N         142.6076  140.0973  158.4846 N.3     1  UNL1       -0.2714
     14 C         143.8423  139.6623  159.2168 C.3     1  UNL1        0.0722
     15 C         144.0109  139.3796  160.6802 C.3     1  UNL1        0.0193
     16 C         142.9865  139.4620  161.7729 C.3     1  UNL1        0.0259
     17 C         141.5404  139.8475  161.6719 C.3     1  UNL1        0.1098
     18 C         140.7616  140.2459  160.4534 C.3     1  UNL1        0.0418
     19 C         141.2365  140.3570  159.0349 C.3     1  UNL1        0.0741
     20 C         139.8457  142.2974  165.9294 C.3     1  UNL1        0.0738
     21 C         140.7557  142.4612  167.1105 C.ar    1  UNL1       -0.0161
     22 C         142.1964  142.0557  167.0093 C.ar    1  UNL1       -0.0030
     23 C         143.1063  142.2195  168.1904 C.ar    1  UNL1        0.0111
     24 C         142.5757  142.7889  169.4727 C.ar    1  UNL1        0.0577
     25 CL        143.4857  142.9527  170.6539 Cl      1  UNL1       -0.0822
     26 C         141.1352  143.1944  169.5739 C.ar    1  UNL1        0.0111
     27 C         140.2251  143.0305  168.3928 C.ar    1  UNL1       -0.0030
@<TRIPOS>BOND
     1    12    13    1
     2    13    14    1
     3    14    15    1
     4    15    16    1
     5    16    17    1
     6    17     1    1
     7     1     2   ar
     8     2     3   ar
     9     3    20    1
    10    20    21    1
    11    21    22   ar
    12    22    23   ar
    13    23    24   ar
    14    24    25    1
    15    24    26   ar
    16    26    27   ar
    17     3     4   ar
    18     4     5   ar
    19     5     6   ar
    20     6     7   ar
    21     7     8   ar
    22     8     9   ar
    23     9    10   ar
    24    10    11    2
    25    17    18    1
    26    18    19    1
    27    19    13    1
    28    10     1   ar
    29    27    21   ar
    30     9     4   ar
@<TRIPOS>MOLECULE
*****
 27 30 0 0 0
SMALL
GASTEIGER

@<TRIPOS>ATOM
      1 N         139.9372  139.9643  161.2548 N.ar    1  UNL1       -0.2189
      2 N         139.6883  139.2760  162.5641 N.ar    1  UNL1       -0.1709
      3 C         139.0820  140.0350  163.7071 C.ar    1  UNL1        0.0832
      4 C         138.7247  141.4823  163.5407 C.ar    1  UNL1        0.0202
      5 C         138.1184  142.2413  164.6837 C.ar    1  UNL1        0.0014
      6 C         137.7611  143.6886  164.5173 C.ar    1  UNL1        0.0000
      7 C         138.0100  144.3768  163.2080 C.ar    1  UNL1        0.0002
      8 C         138.6163  143.6178  162.0650 C.ar    1  UNL1        0.0048
      9 C         138.9736  142.1706  162.2314 C.ar    1  UNL1        0.0588
     10 C         139.5799  141.4115  161.0884 C.ar    1  UNL1        0.2762
     11 O         139.8288  142.0998  159.7791 O.2     1  UNL1       -0.2655
     12 C         141.1636  136.7918  155.9574 C.3     1  UNL1        0.0896
     13 N         141.2001  137.5067  157.2757 N.3     1  UNL1       -0.2714
     14 C         142.5428  137.5781  157.9404 C.3     1  UNL1        0.0722
     15 C         142.9060  138.2161  159.2484 C.3     1  UNL1        0.0193
     16 C         142.0162  138.9403  160.2149 C.3     1  UNL1        0.0259
     17 C         140.5434  139.2052  160.1118 C.3     1  UNL1        0.1098
     18 C         139.5967  138.8115  159.0170 C.3     1  UNL1        0.0418
     19 C         139.8888  138.0556  157.7548 C.3     1  UNL1        0.0741
     20 C         138.8331  139.3467  165.0164 C.3     1  UNL1        0.0738
     21 C         139.8013  139.5173  166.1493 C.ar    1  UNL1       -0.0161
     22 C         139.3000  139.8778  167.5164 C.ar    1  UNL1       -0.0030
     23 C         140.2681  140.0484  168.6494 C.ar    1  UNL1        0.0111
     24 C         141.7375  139.8585  168.4153 C.ar    1  UNL1        0.0577
     25 CL        142.7057  140.0291  169.5482 Cl      1  UNL1       -0.0822
     26 C         142.2388  139.4980  167.0483 C.ar    1  UNL1        0.0111
     27 C         141.2707  139.3274  165.9153 C.ar    1  UNL1       -0.0030
@<TRIPOS>BOND
     1    12    13    1
     2    13    14    1
     3    14    15    1
     4    15    16    1
     5    16    17    1
     6    17     1    1
     7     1     2   ar
     8     2     3   ar
     9     3    20    1
    10    20    21    1
    11    21    22   ar
    12    22    23   ar
    13    23    24   ar
    14    24    25    1
    15    24    26   ar
    16    26    27   ar
    17     3     4   ar
    18     4     5   ar
    19     5     6   ar
    20     6     7   ar
    21     7     8   ar
    22     8     9   ar
    23     9    10   ar
    24    10    11    2
    25    17    18    1
    26    18    19    1
    27    19    13    1
    28    10     1   ar
    29    27    21   ar
    30     9     4   ar
@<TRIPOS>MOLECULE
*****
 27 30 0 0 0
SMALL
GASTEIGER

@<TRIPOS>ATOM
      1 N         142.2443  140.1161  161.7456 N.ar    1  UNL1       -0.2189
      2 N         142.3165  139.3519  163.0344 N.ar    1  UNL1       -0.1709
      3 C         142.8283  140.0209  164.2754 C.ar    1  UNL1        0.0832
      4 C         143.2680  141.4543  164.2278 C.ar    1  UNL1        0.0202
      5 C         143.7798  142.1234  165.4689 C.ar    1  UNL1        0.0014
      6 C         144.2195  143.5567  165.4212 C.ar    1  UNL1        0.0000
      7 C         144.1473  144.3209  164.1325 C.ar    1  UNL1        0.0002
      8 C         143.6354  143.6518  162.8915 C.ar    1  UNL1        0.0048
      9 C         143.1958  142.2185  162.9391 C.ar    1  UNL1        0.0588
     10 C         142.6839  141.5494  161.6980 C.ar    1  UNL1        0.2762
     11 O         142.6117  142.3136  160.4093 O.2     1  UNL1       -0.2655
     12 C         141.4432  136.9227  156.3799 C.3     1  UNL1        0.0896
     13 N         141.3036  137.7372  157.6318 N.3     1  UNL1       -0.2714
     14 C         139.9189  138.2248  157.9398 C.3     1  UNL1        0.0722
     15 C         139.4558  139.0520  159.1022 C.3     1  UNL1        0.0193
     16 C         140.2629  139.5959  160.2437 C.3     1  UNL1        0.0259
     17 C         141.7324  139.4469  160.5045 C.3     1  UNL1        0.1098
     18 C         142.7579  138.7172  159.6885 C.3     1  UNL1        0.0418
     19 C         142.5671  137.9563  158.4100 C.3     1  UNL1        0.0741
     20 C         142.9005  139.2567  165.5641 C.3     1  UNL1        0.0738
     21 C         141.9079  139.5302  166.6549 C.ar    1  UNL1       -0.0161
     22 C         140.4555  139.7025  166.3213 C.ar    1  UNL1       -0.0030
     23 C         139.4629  139.9760  167.4121 C.ar    1  UNL1        0.0111
     24 C         139.9224  140.0771  168.8364 C.ar    1  UNL1        0.0577
     25 CL        138.9297  140.3505  169.9271 Cl      1  UNL1       -0.0822
     26 C         141.3746  139.9048  169.1699 C.ar    1  UNL1        0.0111
     27 C         142.3674  139.6313  168.0792 C.ar    1  UNL1       -0.0030
@<TRIPOS>BOND
     1    12    13    1
     2    13    14    1
     3    14    15    1
     4    15    16    1
     5    16    17    1
     6    17     1    1
     7     1     2   ar
     8     2     3   ar
     9     3    20    1
    10    20    21    1
    11    21    22   ar
    12    22    23   ar
    13    23    24   ar
    14    24    25    1
    15    24    26   ar
    16    26    27   ar
    17     3     4   ar
    18     4     5   ar
    19     5     6   ar
    20     6     7   ar
    21     7     8   ar
    22     8     9   ar
    23     9    10   ar
    24    10    11    2
    25    17    18    1
    26    18    19    1
    27    19    13    1
    28    10     1   ar
    29    27    21   ar
    30     9     4   ar
@<TRIPOS>MOLECULE
*****
 27 30 0 0 0
SMALL
GASTEIGER

@<TRIPOS>ATOM
      1 N         140.5241  141.9012  162.0327 N.ar    1  UNL1       -0.2189
      2 N         140.3880  142.6613  163.3186 N.ar    1  UNL1       -0.1709
      3 C         139.8895  141.9669  164.5512 C.ar    1  UNL1        0.0832
      4 C         139.5271  140.5123  164.4978 C.ar    1  UNL1        0.0202
      5 C         139.0286  139.8179  165.7304 C.ar    1  UNL1        0.0014
      6 C         138.6662  138.3633  165.6770 C.ar    1  UNL1        0.0000
      7 C         138.8024  137.6032  164.3911 C.ar    1  UNL1        0.0002
      8 C         139.3009  138.2976  163.1585 C.ar    1  UNL1        0.0048
      9 C         139.6632  139.7521  163.2119 C.ar    1  UNL1        0.0588
     10 C         140.1618  140.4466  161.9793 C.ar    1  UNL1        0.2762
     11 O         140.2980  139.6865  160.6934 O.2     1  UNL1       -0.2655
     12 C         141.2666  145.1988  156.7218 C.3     1  UNL1        0.0896
     13 N         141.4202  144.3612  157.9567 N.3     1  UNL1       -0.2714
     14 C         142.8092  143.8729  158.2434 C.3     1  UNL1        0.0722
     15 C         143.2855  143.0255  159.3857 C.3     1  UNL1        0.0193
     16 C         142.4904  142.4571  160.5237 C.3     1  UNL1        0.0259
     17 C         141.0227  142.5957  160.8001 C.3     1  UNL1        0.1098
     18 C         139.9875  143.3369  160.0071 C.3     1  UNL1        0.0418
     19 C         140.1643  144.1227  158.7416 C.3     1  UNL1        0.0741
     20 C         139.7533  142.7271  165.8371 C.3     1  UNL1        0.0738
     21 C         140.8339  142.6461  166.8742 C.ar    1  UNL1       -0.0161
     22 C         142.2347  142.2911  166.4718 C.ar    1  UNL1       -0.0030
     23 C         143.3153  142.2101  167.5089 C.ar    1  UNL1        0.0111
     24 C         142.9952  142.4842  168.9485 C.ar    1  UNL1        0.0577
     25 CL        144.0759  142.4033  169.9856 Cl      1  UNL1       -0.0822
     26 C         141.5946  142.8393  169.3510 C.ar    1  UNL1        0.0111
     27 C         140.5139  142.9202  168.3138 C.ar    1  UNL1       -0.0030
@<TRIPOS>BOND
     1    12    13    1
     2    13    14    1
     3    14    15    1
     4    15    16    1
     5    16    17    1
     6    17     1    1
     7     1     2   ar
     8     2     3   ar
     9     3    20    1
    10    20    21    1
    11    21    22   ar
    12    22    23   ar
    13    23    24   ar
    14    24    25    1
    15    24    26   ar
    16    26    27   ar
    17     3     4   ar
    18     4     5   ar
    19     5     6   ar
    20     6     7   ar
    21     7     8   ar
    22     8     9   ar
    23     9    10   ar
    24    10    11    2
    25    17    18    1
    26    18    19    1
    27    19    13    1
    28    10     1   ar
    29    27    21   ar
    30     9     4   ar
@<TRIPOS>MOLECULE
*****
 27 30 0 0 0
SMALL
GASTEIGER

@<TRIPOS>ATOM
      1 N         141.4527  141.7623  162.4349 N.ar    1  UNL1       -0.2189
      2 N         140.4479  141.3745  163.4790 N.ar    1  UNL1       -0.1709
      3 C         140.8501  140.4736  164.6089 C.ar    1  UNL1        0.0832
      4 C         142.2571  139.9606  164.6947 C.ar    1  UNL1        0.0202
      5 C         142.6592  139.0597  165.8246 C.ar    1  UNL1        0.0014
      6 C         144.0661  138.5467  165.9104 C.ar    1  UNL1        0.0000
      7 C         145.0709  138.9345  164.8663 C.ar    1  UNL1        0.0002
      8 C         144.6687  139.8354  163.7364 C.ar    1  UNL1        0.0048
      9 C         143.2618  140.3484  163.6506 C.ar    1  UNL1        0.0588
     10 C         142.8595  141.2493  162.5207 C.ar    1  UNL1        0.2762
     11 O         143.8643  141.6371  161.4766 O.2     1  UNL1       -0.2655
     12 C         139.5738  144.3288  157.0023 C.3     1  UNL1        0.0896
     13 N         140.0445  144.0373  158.3964 N.3     1  UNL1       -0.2714
     14 C         140.2940  145.2358  159.2631 C.3     1  UNL1        0.0722
     15 C         140.7641  145.2788  160.6868 C.3     1  UNL1        0.0193
     16 C         141.1007  144.1338  161.5956 C.3     1  UNL1        0.0259
     17 C         141.0504  142.6632  161.3050 C.3     1  UNL1        0.1098
     18 C         140.6511  141.9742  160.0338 C.3     1  UNL1        0.0418
     19 C         140.2034  142.5856  158.7394 C.3     1  UNL1        0.0741
     20 C         139.8454  140.0858  165.6530 C.3     1  UNL1        0.0738
     21 C         139.8853  140.7286  167.0077 C.ar    1  UNL1       -0.0161
     22 C         140.4793  142.0962  167.1717 C.ar    1  UNL1       -0.0030
     23 C         140.5192  142.7390  168.5264 C.ar    1  UNL1        0.0111
     24 C         139.9652  142.0142  169.7171 C.ar    1  UNL1        0.0577
     25 CL        140.0051  142.6570  171.0717 Cl      1  UNL1       -0.0822
     26 C         139.3713  140.6467  169.5531 C.ar    1  UNL1        0.0111
     27 C         139.3313  140.0038  168.1984 C.ar    1  UNL1       -0.0030
@<TRIPOS>BOND
     1    12    13    1
     2    13    14    1
     3    14    15    1
     4    15    16    1
     5    16    17    1
     6    17     1    1
     7     1     2   ar
     8     2     3   ar
     9     3    20    1
    10    20    21    1
    11    21    22   ar
    12    22    23   ar
    13    23    24   ar
    14    24    25    1
    15    24    26   ar
    16    26    27   ar
    17     3     4   ar
    18     4     5   ar
    19     5     6   ar
    20     6     7   ar
    21     7     8   ar
    22     8     9   ar
    23     9    10   ar
    24    10    11    2
    25    17    18    1
    26    18    19    1
    27    19    13    1
    28    10     1   ar
    29    27    21   ar
    30     9     4   ar
@<TRIPOS>MOLECULE
*****
 27 30 0 0 0
SMALL
GASTEIGER

@<TRIPOS>ATOM
      1 N         141.4045  141.5415  161.8361 N.ar    1  UNL1       -0.2189
      2 N         142.3223  141.7237  163.0085 N.ar    1  UNL1       -0.1709
      3 C         141.8657  142.5061  164.2040 C.ar    1  UNL1        0.0832
      4 C         140.4912  143.1064  164.2272 C.ar    1  UNL1        0.0202
      5 C         140.0345  143.8888  165.4227 C.ar    1  UNL1        0.0014
      6 C         138.6601  144.4890  165.4459 C.ar    1  UNL1        0.0000
      7 C         137.7423  144.3068  164.2735 C.ar    1  UNL1        0.0002
      8 C         138.1989  143.5244  163.0780 C.ar    1  UNL1        0.0048
      9 C         139.5733  142.9242  163.0549 C.ar    1  UNL1        0.0588
     10 C         140.0300  142.1417  161.8593 C.ar    1  UNL1        0.2762
     11 O         139.1122  141.9595  160.6870 O.2     1  UNL1       -0.2655
     12 C         142.7324  137.1738  157.5014 C.3     1  UNL1        0.0896
     13 N         142.5721  138.4206  158.3198 N.3     1  UNL1       -0.2714
     14 C         143.1510  139.6693  157.7236 C.3     1  UNL1        0.0722
     15 C         143.1550  141.0596  158.2866 C.3     1  UNL1        0.0193
     16 C         142.5809  141.5447  159.5848 C.3     1  UNL1        0.0259
     17 C         141.8612  140.7591  160.6406 C.3     1  UNL1        0.1098
     18 C         141.5377  139.2945  160.6590 C.3     1  UNL1        0.0418
     19 C         141.8541  138.2537  159.6262 C.3     1  UNL1        0.0741
     20 C         142.7835  142.6884  165.3763 C.3     1  UNL1        0.0738
     21 C         142.7328  141.7255  166.5253 C.ar    1  UNL1       -0.0161
     22 C         142.7325  142.2390  167.9348 C.ar    1  UNL1       -0.0030
     23 C         142.6818  141.2762  169.0838 C.ar    1  UNL1        0.0111
     24 C         142.6313  139.7998  168.8235 C.ar    1  UNL1        0.0577
     25 CL        142.5805  138.8369  169.9725 Cl      1  UNL1       -0.0822
     26 C         142.6315  139.2863  167.4141 C.ar    1  UNL1        0.0111
     27 C         142.6823  140.2491  166.2650 C.ar    1  UNL1       -0.0030
@<TRIPOS>BOND
     1    12    13    1
     2    13    14    1
     3    14    15    1
     4    15    16    1
     5    16    17    1
     6    17     1    1
     7     1     2   ar
     8     2     3   ar
     9     3    20    1
    10    20    21    1
    11    21    22   ar
    12    22    23   ar
    13    23    24   ar
    14    24    25    1
    15    24    26   ar
    16    26    27   ar
    17     3     4   ar
    18     4     5   ar
    19     5     6   ar
    20     6     7   ar
    21     7     8   ar
    22     8     9   ar
    23     9    10   ar
    24    10    11    2
    25    17    18    1
    26    18    19    1
    27    19    13    1
    28    10     1   ar
    29    27    21   ar
    30     9     4   ar
@<TRIPOS>MOLECULE
*****
 27 30 0 0 0
SMALL
GASTEIGER

@<TRIPOS>ATOM
      1 N         142.4497  142.3724  165.6271 N.ar    1  UNL1       -0.2189
      2 N         143.5003  142.2945  164.5593 N.ar    1  UNL1       -0.1709
      3 C         143.3078  143.0247  163.2632 C.ar    1  UNL1        0.0832
      4 C         142.0648  143.8327  163.0349 C.ar    1  UNL1        0.0202
      5 C         141.8724  144.5628  161.7389 C.ar    1  UNL1        0.0014
      6 C         140.6294  145.3707  161.5106 C.ar    1  UNL1        0.0000
      7 C         139.5788  145.4485  162.5784 C.ar    1  UNL1        0.0002
      8 C         139.7712  144.7184  163.8745 C.ar    1  UNL1        0.0048
      9 C         141.0142  143.9105  164.1028 C.ar    1  UNL1        0.0588
     10 C         141.2067  143.1803  165.3989 C.ar    1  UNL1        0.2762
     11 O         140.1562  143.2581  166.4667 O.2     1  UNL1       -0.2655
     12 C         142.9232  138.1759  170.2958 C.3     1  UNL1        0.0896
     13 N         142.8957  139.3955  169.4228 N.3     1  UNL1       -0.2714
     14 C         143.2320  140.6898  170.1021 C.3     1  UNL1        0.0722
     15 C         143.2912  142.0677  169.5123 C.3     1  UNL1        0.0193
     16 C         143.0287  142.4916  168.0976 C.3     1  UNL1        0.0259
     17 C         142.6422  141.6422  166.9233 C.3     1  UNL1        0.1098
     18 C         142.4227  140.1592  166.8736 C.3     1  UNL1        0.0418
     19 C         142.5355  139.1593  167.9859 C.3     1  UNL1        0.0741
     20 C         144.3584  142.9468  162.1954 C.3     1  UNL1        0.0738
     21 C         144.1479  142.0671  160.9989 C.ar    1  UNL1       -0.0161
     22 C         143.9000  140.5990  161.1816 C.ar    1  UNL1       -0.0030
     23 C         143.6895  139.7193  159.9851 C.ar    1  UNL1        0.0111
     24 C         143.7268  140.3076  158.6058 C.ar    1  UNL1        0.0577
     25 CL        143.5163  139.4279  157.4092 Cl      1  UNL1       -0.0822
     26 C         143.9747  141.7756  158.4230 C.ar    1  UNL1        0.0111
     27 C         144.1852  142.6554  159.6195 C.ar    1  UNL1       -0.0030
@<TRIPOS>BOND
     1    12    13    1
     2    13    14    1
     3    14    15    1
     4    15    16    1
     5    16    17    1
     6    17     1    1
     7     1     2   ar
     8     2     3   ar
     9     3    20    1
    10    20    21    1
    11    21    22   ar
    12    22    23   ar
    13    23    24   ar
    14    24    25    1
    15    24    26   ar
    16    26    27   ar
    17     3     4   ar
    18     4     5   ar
    19     5     6   ar
    20     6     7   ar
    21     7     8   ar
    22     8     9   ar
    23     9    10   ar
    24    10    11    2
    25    17    18    1
    26    18    19    1
    27    19    13    1
    28    10     1   ar
    29    27    21   ar
    30     9     4   ar
@<TRIPOS>MOLECULE
*****
 27 30 0 0 0
SMALL
GASTEIGER

@<TRIPOS>ATOM
      1 N         140.2029  141.5021  165.7736 N.ar    1  UNL1       -0.2189
      2 N         139.5567  142.5198  164.8810 N.ar    1  UNL1       -0.1709
      3 C         138.7976  142.0770  163.6653 C.ar    1  UNL1        0.0832
      4 C         138.6848  140.6165  163.3423 C.ar    1  UNL1        0.0202
      5 C         137.9257  140.1738  162.1267 C.ar    1  UNL1        0.0014
      6 C         137.8129  138.7134  161.8036 C.ar    1  UNL1        0.0000
      7 C         138.4591  137.6957  162.6962 C.ar    1  UNL1        0.0002
      8 C         139.2181  138.1384  163.9119 C.ar    1  UNL1        0.0048
      9 C         139.3310  139.5989  164.2349 C.ar    1  UNL1        0.0588
     10 C         140.0900  140.0417  165.4506 C.ar    1  UNL1        0.2762
     11 O         140.7363  139.0240  166.3432 O.2     1  UNL1       -0.2655
     12 C         144.5115  142.9470  170.1300 C.3     1  UNL1        0.0896
     13 N         143.2688  142.7185  169.3216 N.3     1  UNL1       -0.2714
     14 C         141.9810  143.1113  169.9828 C.3     1  UNL1        0.0722
     15 C         140.5845  143.0100  169.4446 C.3     1  UNL1        0.0193
     16 C         140.1310  142.4909  168.1123 C.3     1  UNL1        0.0259
     17 C         140.9620  141.9449  166.9892 C.3     1  UNL1        0.1098
     18 C         142.4517  141.7831  166.9210 C.3     1  UNL1        0.0418
     19 C         143.4783  142.1273  167.9590 C.3     1  UNL1        0.0741
     20 C         138.1514  143.0947  162.7727 C.3     1  UNL1        0.0738
     21 C         138.9430  143.7384  161.6732 C.ar    1  UNL1       -0.0161
     22 C         139.0562  143.0651  160.3374 C.ar    1  UNL1       -0.0030
     23 C         139.8478  143.7088  159.2379 C.ar    1  UNL1        0.0111
     24 C         140.5261  145.0256  159.4739 C.ar    1  UNL1        0.0577
     25 CL        141.3177  145.6693  158.3743 Cl      1  UNL1       -0.0822
     26 C         140.4129  145.6988  160.8095 C.ar    1  UNL1        0.0111
     27 C         139.6214  145.0552  161.9092 C.ar    1  UNL1       -0.0030
@<TRIPOS>BOND
     1    12    13    1
     2    13    14    1
     3    14    15    1
     4    15    16    1
     5    16    17    1
     6    17     1    1
     7     1     2   ar
     8     2     3   ar
     9     3    20    1
    10    20    21    1
    11    21    22   ar
    12    22    23   ar
    13    23    24   ar
    14    24    25    1
    15    24    26   ar
    16    26    27   ar
    17     3     4   ar
    18     4     5   ar
    19     5     6   ar
    20     6     7   ar
    21     7     8   ar
    22     8     9   ar
    23     9    10   ar
    24    10    11    2
    25    17    18    1
    26    18    19    1
    27    19    13    1
    28    10     1   ar
    29    27    21   ar
    30     9     4   ar
@<TRIPOS>MOLECULE
*****
 27 30 0 0 0
SMALL
GASTEIGER

@<TRIPOS>ATOM
      1 N         141.5815  142.5147  161.6064 N.ar    1  UNL1       -0.2189
      2 N         140.8556  142.6888  162.9074 N.ar    1  UNL1       -0.1709
      3 C         141.3512  141.9951  164.1415 C.ar    1  UNL1        0.0832
      4 C         142.5728  141.1271  164.0746 C.ar    1  UNL1        0.0202
      5 C         143.0684  140.4334  165.3087 C.ar    1  UNL1        0.0014
      6 C         144.2899  139.5655  165.2418 C.ar    1  UNL1        0.0000
      7 C         145.0158  139.3913  163.9408 C.ar    1  UNL1        0.0002
      8 C         144.5202  140.0850  162.7067 C.ar    1  UNL1        0.0048
      9 C         143.2987  140.9529  162.7736 C.ar    1  UNL1        0.0588
     10 C         142.8030  141.6467  161.5395 C.ar    1  UNL1        0.2762
     11 O         143.5290  141.4726  160.2384 O.2     1  UNL1       -0.2655
     12 C         138.8673  144.1917  156.1795 C.3     1  UNL1        0.0896
     13 N         139.6326  144.1063  157.4667 N.3     1  UNL1       -0.2714
     14 C         140.3673  145.3501  157.8708 C.3     1  UNL1        0.0722
     15 C         141.2129  145.5831  159.0876 C.3     1  UNL1        0.0193
     16 C         141.5327  144.6300  160.2009 C.3     1  UNL1        0.0259
     17 C         141.0858  143.2085  160.3723 C.3     1  UNL1        0.1098
     18 C         140.2088  142.3889  159.4727 C.3     1  UNL1        0.0418
     19 C         139.5621  142.7884  158.1796 C.3     1  UNL1        0.0741
     20 C         140.6253  142.1693  165.4426 C.3     1  UNL1        0.0738
     21 C         139.7418  141.0735  165.9610 C.ar    1  UNL1       -0.0161
     22 C         139.7864  140.6977  167.4126 C.ar    1  UNL1       -0.0030
     23 C         138.9030  139.6019  167.9310 C.ar    1  UNL1        0.0111
     24 C         137.9750  138.8820  166.9981 C.ar    1  UNL1        0.0577
     25 CL        137.0916  137.7862  167.5166 Cl      1  UNL1       -0.0822
     26 C         137.9304  139.2577  165.5466 C.ar    1  UNL1        0.0111
     27 C         138.8138  140.3535  165.0281 C.ar    1  UNL1       -0.0030
@<TRIPOS>BOND
     1    12    13    1
     2    13    14    1
     3    14    15    1
     4    15    16    1
     5    16    17    1
     6    17     1    1
     7     1     2   ar
     8     2     3   ar
     9     3    20    1
    10    20    21    1
    11    21    22   ar
    12    22    23   ar
    13    23    24   ar
    14    24    25    1
    15    24    26   ar
    16    26    27   ar
    17     3     4   ar
    18     4     5   ar
    19     5     6   ar
    20     6     7   ar
    21     7     8   ar
    22     8     9   ar
    23     9    10   ar
    24    10    11    2
    25    17    18    1
    26    18    19    1
    27    19    13    1
    28    10     1   ar
    29    27    21   ar
    30     9     4   ar
