@<TRIPOS>MOLECULE
*****
 37 39 0 0 0
SMALL
GASTEIGER

@<TRIPOS>ATOM
      1 N         142.5393  137.8580  160.9018 N.am    1  UNL1       -0.1675
      2 C         141.8861  138.3533  159.6457 C.2     1  UNL1        0.3092
      3 O         140.5190  138.9679  159.7033 O.2     1  UNL1       -0.2515
      4 H         143.4366  137.4546  160.8640 H       1  UNL1        0.2546
      5 C         138.9189  137.3609  164.7132 C.3     1  UNL1        0.0711
      6 C         140.1613  137.7488  163.9676 C.2     1  UNL1        0.1580
      7 N         140.4907  137.3807  162.5512 N.2     1  UNL1       -0.0757
      8 C         141.8255  137.9773  162.2157 C.2     1  UNL1        0.4219
      9 N         142.3210  138.7142  163.4246 N.2     1  UNL1       -0.0878
     10 C         141.2925  138.5730  164.5074 C.3     1  UNL1        0.2545
     11 C         141.3798  139.1539  165.8875 C.ar    1  UNL1        0.0239
     12 C         142.6382  138.9976  166.6888 C.ar    1  UNL1       -0.0006
     13 C         142.7255  139.5785  168.0689 C.ar    1  UNL1        0.0036
     14 C         141.5545  140.3158  168.6479 C.ar    1  UNL1        0.0714
     15 C         140.2960  140.4721  167.8466 C.ar    1  UNL1        0.0036
     16 C         140.2088  139.8911  166.4664 C.ar    1  UNL1       -0.0006
     17 C         141.6418  140.8967  170.0280 C.3     1  UNL1        0.4186
     18 F         141.7292  141.4777  171.4082 F       1  UNL1       -0.1659
     19 F         141.3362  142.2570  169.4748 F       1  UNL1       -0.1659
     20 F         141.9475  139.5364  170.5813 F       1  UNL1       -0.1659
     21 C         142.6000  138.2340  158.3318 C.ar    1  UNL1        0.0883
     22 C         142.5792  136.9349  157.5822 C.ar    1  UNL1        0.0063
     23 C         143.2930  136.8157  156.2684 C.ar    1  UNL1        0.0168
     24 C         144.0277  137.9955  155.7042 C.ar    1  UNL1        0.0960
     25 N         144.0485  139.2945  156.4538 N.ar    1  UNL1       -0.2427
     26 C         143.3347  139.4138  157.7676 C.ar    1  UNL1        0.1307
     27 C         143.3555  140.7129  158.5173 C.3     1  UNL1        0.3583
     28 F         144.1109  140.8216  159.8086 F       1  UNL1       -0.1915
     29 F         142.6210  141.9033  157.9756 F       1  UNL1       -0.1915
     30 C         143.2722  135.5166  155.5187 C.3     1  UNL1        0.1179
     31 N         144.2385  134.4273  155.8788 N.am    1  UNL1       -0.3004
     32 C         143.7298  133.1136  156.3939 C.2     1  UNL1        0.2222
     33 O         142.2548  132.8891  156.5489 O.2     1  UNL1       -0.2751
     34 H         145.2066  134.5746  155.7771 H       1  UNL1        0.1497
     35 C         144.6961  132.0243  156.7541 C.3     1  UNL1        0.0765
     36 C         144.8716  130.8458  155.8427 C.3     1  UNL1        0.0096
     37 C         145.4869  132.1134  158.0255 C.3     1  UNL1        0.0096
@<TRIPOS>BOND
     1     5     6    1
     2     6     7    2
     3     7     8    1
     4     8     1    1
     5     1     2   am
     6     2     3    2
     7     2    21    1
     8    21    22   ar
     9    22    23   ar
    10    23    30    1
    11    30    31    1
    12    31    32   am
    13    32    33    2
    14    32    35    1
    15    35    36    1
    16    35    37    1
    17    23    24   ar
    18    24    25   ar
    19    25    26   ar
    20    26    27    1
    21    27    28    1
    22    27    29    1
    23     8     9    2
    24     9    10    1
    25    10    11    1
    26    11    12   ar
    27    12    13   ar
    28    13    14   ar
    29    14    17    1
    30    17    18    1
    31    17    19    1
    32    17    20    1
    33    14    15   ar
    34    15    16   ar
    35    10     6    1
    36    16    11   ar
    37    26    21   ar
    38     1     4    1
    39    31    34    1
@<TRIPOS>MOLECULE
*****
 37 39 0 0 0
SMALL
GASTEIGER

@<TRIPOS>ATOM
      1 N         142.7107  138.2402  160.7423 N.am    1  UNL1       -0.1675
      2 C         142.3940  138.9439  159.4561 C.2     1  UNL1        0.3092
      3 O         142.5899  140.4268  159.3445 O.2     1  UNL1       -0.2515
      4 H         142.5822  137.2668  160.8155 H       1  UNL1        0.2546
      5 C         145.6955  141.3584  163.7836 C.3     1  UNL1        0.0711
      6 C         144.5955  140.4527  163.3149 C.2     1  UNL1        0.1580
      7 N         144.4681  139.8563  161.9444 N.2     1  UNL1       -0.0757
      8 C         143.2235  139.0194  161.9171 C.2     1  UNL1        0.4219
      9 N         142.5817  139.0986  163.2705 N.2     1  UNL1       -0.0878
     10 C         143.4296  139.9844  164.1345 C.3     1  UNL1        0.2545
     11 C         143.1592  140.3395  165.5664 C.ar    1  UNL1        0.0239
     12 C         142.9673  139.2551  166.5848 C.ar    1  UNL1       -0.0006
     13 C         142.6969  139.6102  168.0168 C.ar    1  UNL1        0.0036
     14 C         142.6183  141.0499  168.4305 C.ar    1  UNL1        0.0714
     15 C         142.8101  142.1345  167.4121 C.ar    1  UNL1        0.0036
     16 C         143.0805  141.7792  165.9801 C.ar    1  UNL1       -0.0006
     17 C         142.3478  141.4051  169.8626 C.3     1  UNL1        0.4186
     18 F         142.0774  141.7602  171.2946 F       1  UNL1       -0.1659
     19 F         143.7734  141.0928  170.2092 F       1  UNL1       -0.1659
     20 F         140.9222  141.7173  169.5159 F       1  UNL1       -0.1659
     21 C         141.8812  138.1646  158.2814 C.ar    1  UNL1        0.0883
     22 C         142.8376  137.4075  157.4084 C.ar    1  UNL1        0.0063
     23 C         142.3249  136.6283  156.2338 C.ar    1  UNL1        0.0168
     24 C         140.8557  136.6062  155.9320 C.ar    1  UNL1        0.0960
     25 N         139.8993  137.3633  156.8050 N.ar    1  UNL1       -0.2427
     26 C         140.4121  138.1425  157.9796 C.ar    1  UNL1        0.1307
     27 C         139.4556  138.8996  158.8526 C.3     1  UNL1        0.3583
     28 F         138.8721  140.1969  158.3768 F       1  UNL1       -0.1915
     29 F         139.0828  138.3595  160.2014 F       1  UNL1       -0.1915
     30 C         143.2813  135.8712  155.3608 C.3     1  UNL1        0.1179
     31 N         144.1579  134.8084  155.9542 N.am    1  UNL1       -0.3004
     32 C         143.6748  133.3900  156.0235 C.2     1  UNL1        0.2222
     33 O         142.3151  133.0344  155.4993 O.2     1  UNL1       -0.2751
     34 H         145.0503  135.0418  156.2982 H       1  UNL1        0.1497
     35 C         144.5514  132.3273  156.6169 C.3     1  UNL1        0.0765
     36 C         144.8136  131.0608  155.8571 C.3     1  UNL1        0.0096
     37 C         145.1658  132.5310  157.9700 C.3     1  UNL1        0.0096
@<TRIPOS>BOND
     1     5     6    1
     2     6     7    2
     3     7     8    1
     4     8     1    1
     5     1     2   am
     6     2     3    2
     7     2    21    1
     8    21    22   ar
     9    22    23   ar
    10    23    30    1
    11    30    31    1
    12    31    32   am
    13    32    33    2
    14    32    35    1
    15    35    36    1
    16    35    37    1
    17    23    24   ar
    18    24    25   ar
    19    25    26   ar
    20    26    27    1
    21    27    28    1
    22    27    29    1
    23     8     9    2
    24     9    10    1
    25    10    11    1
    26    11    12   ar
    27    12    13   ar
    28    13    14   ar
    29    14    17    1
    30    17    18    1
    31    17    19    1
    32    17    20    1
    33    14    15   ar
    34    15    16   ar
    35    10     6    1
    36    16    11   ar
    37    26    21   ar
    38     1     4    1
    39    31    34    1
@<TRIPOS>MOLECULE
*****
 37 39 0 0 0
SMALL
GASTEIGER

@<TRIPOS>ATOM
      1 N         139.6540  141.2621  160.6128 N.am    1  UNL1       -0.1675
      2 C         138.7034  142.3231  160.1432 C.2     1  UNL1        0.3092
      3 O         137.8445  143.0522  161.1335 O.2     1  UNL1       -0.2515
      4 H         140.2177  140.7835  159.9629 H       1  UNL1        0.2546
      5 C         139.0357  138.8287  165.2580 C.3     1  UNL1        0.0711
      6 C         139.4615  139.8116  164.2080 C.2     1  UNL1        0.1580
      7 N         139.1114  139.7518  162.7505 N.2     1  UNL1       -0.0757
      8 C         139.7457  140.9301  162.0728 C.2     1  UNL1        0.4219
      9 N         140.4877  141.7181  163.1113 N.2     1  UNL1       -0.0878
     10 C         140.3121  141.0268  164.4309 C.3     1  UNL1        0.2545
     11 C         140.8862  141.4725  165.7429 C.ar    1  UNL1        0.0239
     12 C         140.0860  142.3609  166.6488 C.ar    1  UNL1       -0.0006
     13 C         140.6602  142.8066  167.9608 C.ar    1  UNL1        0.0036
     14 C         142.0346  142.3640  168.3672 C.ar    1  UNL1        0.0714
     15 C         142.8349  141.4756  167.4614 C.ar    1  UNL1        0.0036
     16 C         142.2606  141.0300  166.1492 C.ar    1  UNL1       -0.0006
     17 C         142.6087  142.8097  169.6793 C.3     1  UNL1        0.4186
     18 F         143.1829  143.2555  170.9915 F       1  UNL1       -0.1659
     19 F         143.7733  141.8849  169.4839 F       1  UNL1       -0.1659
     20 F         141.4441  143.7346  169.8748 F       1  UNL1       -0.1659
     21 C         138.6117  142.6551  158.6833 C.ar    1  UNL1        0.0883
     22 C         137.6226  141.9392  157.8120 C.ar    1  UNL1        0.0063
     23 C         137.5309  142.2711  156.3521 C.ar    1  UNL1        0.0168
     24 C         138.4284  143.3191  155.7635 C.ar    1  UNL1        0.0960
     25 N         139.4175  144.0350  156.6347 N.ar    1  UNL1       -0.2427
     26 C         139.5091  143.7030  158.0946 C.ar    1  UNL1        0.1307
     27 C         140.4983  144.4189  158.9659 C.3     1  UNL1        0.3583
     28 F         141.7608  143.7292  159.3905 F       1  UNL1       -0.1915
     29 F         140.2248  145.8245  159.4126 F       1  UNL1       -0.1915
     30 C         136.5418  141.5552  155.4808 C.3     1  UNL1        0.1179
     31 N         135.0741  141.6547  155.7741 N.am    1  UNL1       -0.3004
     32 C         134.2366  140.4121  155.8404 C.2     1  UNL1        0.2222
     33 O         134.8668  139.0699  155.6134 O.2     1  UNL1       -0.2751
     34 H         134.6605  142.5356  155.9230 H       1  UNL1        0.1497
     35 C         132.7689  140.5116  156.1336 C.3     1  UNL1        0.0765
     36 C         131.9305  141.5349  155.4264 C.3     1  UNL1        0.0096
     37 C         132.1396  139.5879  157.1340 C.3     1  UNL1        0.0096
@<TRIPOS>BOND
     1     5     6    1
     2     6     7    2
     3     7     8    1
     4     8     1    1
     5     1     2   am
     6     2     3    2
     7     2    21    1
     8    21    22   ar
     9    22    23   ar
    10    23    30    1
    11    30    31    1
    12    31    32   am
    13    32    33    2
    14    32    35    1
    15    35    36    1
    16    35    37    1
    17    23    24   ar
    18    24    25   ar
    19    25    26   ar
    20    26    27    1
    21    27    28    1
    22    27    29    1
    23     8     9    2
    24     9    10    1
    25    10    11    1
    26    11    12   ar
    27    12    13   ar
    28    13    14   ar
    29    14    17    1
    30    17    18    1
    31    17    19    1
    32    17    20    1
    33    14    15   ar
    34    15    16   ar
    35    10     6    1
    36    16    11   ar
    37    26    21   ar
    38     1     4    1
    39    31    34    1
@<TRIPOS>MOLECULE
*****
 37 39 0 0 0
SMALL
GASTEIGER

@<TRIPOS>ATOM
      1 N         139.5130  144.2443  160.1235 N.am    1  UNL1       -0.1675
      2 C         140.6624  144.9592  159.4772 C.2     1  UNL1        0.3092
      3 O         141.7995  145.4629  160.3158 O.2     1  UNL1       -0.2515
      4 H         138.7667  143.9137  159.5731 H       1  UNL1        0.2546
      5 C         138.4791  144.8201  165.2695 C.3     1  UNL1        0.0711
      6 C         139.0254  144.2977  163.9739 C.2     1  UNL1        0.1580
      7 N         138.7552  144.8632  162.6110 N.2     1  UNL1       -0.0757
      8 C         139.5007  144.0330  161.6086 C.2     1  UNL1        0.4219
      9 N         140.2318  142.9545  162.3518 N.2     1  UNL1       -0.0878
     10 C         139.9381  143.1180  163.8136 C.3     1  UNL1        0.2545
     11 C         140.4645  142.2538  164.9207 C.ar    1  UNL1        0.0239
     12 C         139.6238  141.1369  165.4648 C.ar    1  UNL1       -0.0006
     13 C         140.1503  140.2726  166.5719 C.ar    1  UNL1        0.0036
     14 C         141.5174  140.5252  167.1351 C.ar    1  UNL1        0.0714
     15 C         142.3581  141.6420  166.5911 C.ar    1  UNL1        0.0036
     16 C         141.8316  142.5063  165.4839 C.ar    1  UNL1       -0.0006
     17 C         142.0438  139.6609  168.2423 C.3     1  UNL1        0.4186
     18 F         142.5703  138.7965  169.3495 F       1  UNL1       -0.1659
     19 F         143.1915  139.2440  167.3712 F       1  UNL1       -0.1659
     20 F         140.8961  140.0777  169.1135 F       1  UNL1       -0.1659
     21 C         140.6747  145.1705  157.9922 C.ar    1  UNL1        0.0883
     22 C         139.8665  146.2791  157.3856 C.ar    1  UNL1        0.0063
     23 C         139.8788  146.4903  155.9007 C.ar    1  UNL1        0.0168
     24 C         140.6993  145.5930  155.0222 C.ar    1  UNL1        0.0960
     25 N         141.5075  144.4845  155.6288 N.ar    1  UNL1       -0.2427
     26 C         141.4952  144.2732  157.1137 C.ar    1  UNL1        0.1307
     27 C         142.3034  143.1647  157.7203 C.3     1  UNL1        0.3583
     28 F         143.5484  143.4813  158.4948 F       1  UNL1       -0.1915
     29 F         141.8666  141.7395  157.5525 F       1  UNL1       -0.1915
     30 C         139.0706  147.5989  155.2941 C.3     1  UNL1        0.1179
     31 N         139.7450  148.8641  154.8530 N.am    1  UNL1       -0.3004
     32 C         139.1420  150.1941  155.1954 C.2     1  UNL1        0.2222
     33 O         137.8644  150.2590  155.9789 O.2     1  UNL1       -0.2751
     34 H         140.5835  148.8215  154.3388 H       1  UNL1        0.1497
     35 C         139.8164  151.4593  154.7544 C.3     1  UNL1        0.0765
     36 C         141.2884  151.4632  154.4659 C.3     1  UNL1        0.0096
     37 C         139.0189  152.7205  154.6019 C.3     1  UNL1        0.0096
@<TRIPOS>BOND
     1     5     6    1
     2     6     7    2
     3     7     8    1
     4     8     1    1
     5     1     2   am
     6     2     3    2
     7     2    21    1
     8    21    22   ar
     9    22    23   ar
    10    23    30    1
    11    30    31    1
    12    31    32   am
    13    32    33    2
    14    32    35    1
    15    35    36    1
    16    35    37    1
    17    23    24   ar
    18    24    25   ar
    19    25    26   ar
    20    26    27    1
    21    27    28    1
    22    27    29    1
    23     8     9    2
    24     9    10    1
    25    10    11    1
    26    11    12   ar
    27    12    13   ar
    28    13    14   ar
    29    14    17    1
    30    17    18    1
    31    17    19    1
    32    17    20    1
    33    14    15   ar
    34    15    16   ar
    35    10     6    1
    36    16    11   ar
    37    26    21   ar
    38     1     4    1
    39    31    34    1
@<TRIPOS>MOLECULE
*****
 37 39 0 0 0
SMALL
GASTEIGER

@<TRIPOS>ATOM
      1 N         138.1943  141.7625  160.0641 N.am    1  UNL1       -0.1675
      2 C         138.7406  142.7102  159.0377 C.2     1  UNL1        0.3092
      3 O         139.3676  144.0028  159.4689 O.2     1  UNL1       -0.2515
      4 H         137.7827  140.9141  159.7811 H       1  UNL1        0.2546
      5 C         137.7807  144.3673  164.6385 C.3     1  UNL1        0.0711
      6 C         138.0849  143.3048  163.6243 C.2     1  UNL1        0.1580
      7 N         137.8139  143.3885  162.1513 N.2     1  UNL1       -0.0757
      8 C         138.2750  142.1075  161.5217 C.2     1  UNL1        0.4219
      9 N         138.8309  141.2321  162.6055 N.2     1  UNL1       -0.0878
     10 C         138.7134  141.9720  163.9050 C.3     1  UNL1        0.2545
     11 C         139.1481  141.4678  165.2490 C.ar    1  UNL1        0.0239
     12 C         140.0810  142.2863  166.0915 C.ar    1  UNL1       -0.0006
     13 C         140.5157  141.7821  167.4355 C.ar    1  UNL1        0.0036
     14 C         140.0176  140.4592  167.9373 C.ar    1  UNL1        0.0714
     15 C         139.0846  139.6405  167.0950 C.ar    1  UNL1        0.0036
     16 C         138.6499  140.1449  165.7508 C.ar    1  UNL1       -0.0006
     17 C         140.4523  139.9549  169.2815 C.3     1  UNL1        0.4186
     18 F         140.8870  139.4506  170.6257 F       1  UNL1       -0.1659
     19 F         141.7173  139.4256  168.6738 F       1  UNL1       -0.1659
     20 F         139.1872  140.4843  169.8893 F       1  UNL1       -0.1659
     21 C         138.6599  142.3652  157.5801 C.ar    1  UNL1        0.0883
     22 C         137.3292  142.3382  156.8883 C.ar    1  UNL1        0.0063
     23 C         137.2486  141.9932  155.4308 C.ar    1  UNL1        0.0168
     24 C         138.4986  141.6752  154.6650 C.ar    1  UNL1        0.0960
     25 N         139.8292  141.7022  155.3568 N.ar    1  UNL1       -0.2427
     26 C         139.9099  142.0472  156.8143 C.ar    1  UNL1        0.1307
     27 C         141.2406  142.0742  157.5062 C.3     1  UNL1        0.3583
     28 F         141.5845  141.0158  158.5120 F       1  UNL1       -0.1915
     29 F         142.2272  143.1594  157.1922 F       1  UNL1       -0.1915
     30 C         135.9179  141.9663  154.7390 C.3     1  UNL1        0.1179
     31 N         134.6704  141.6858  155.5232 N.am    1  UNL1       -0.3004
     32 C         134.2876  140.2711  155.8428 C.2     1  UNL1        0.2222
     33 O         135.1523  139.1369  155.3782 O.2     1  UNL1       -0.2751
     34 H         134.1028  142.4302  155.8282 H       1  UNL1        0.1497
     35 C         133.0401  139.9906  156.6271 C.3     1  UNL1        0.0765
     36 C         133.0986  139.1089  157.8393 C.3     1  UNL1        0.0096
     37 C         131.7341  140.5918  156.1993 C.3     1  UNL1        0.0096
@<TRIPOS>BOND
     1     5     6    1
     2     6     7    2
     3     7     8    1
     4     8     1    1
     5     1     2   am
     6     2     3    2
     7     2    21    1
     8    21    22   ar
     9    22    23   ar
    10    23    30    1
    11    30    31    1
    12    31    32   am
    13    32    33    2
    14    32    35    1
    15    35    36    1
    16    35    37    1
    17    23    24   ar
    18    24    25   ar
    19    25    26   ar
    20    26    27    1
    21    27    28    1
    22    27    29    1
    23     8     9    2
    24     9    10    1
    25    10    11    1
    26    11    12   ar
    27    12    13   ar
    28    13    14   ar
    29    14    17    1
    30    17    18    1
    31    17    19    1
    32    17    20    1
    33    14    15   ar
    34    15    16   ar
    35    10     6    1
    36    16    11   ar
    37    26    21   ar
    38     1     4    1
    39    31    34    1
@<TRIPOS>MOLECULE
*****
 37 39 0 0 0
SMALL
GASTEIGER

@<TRIPOS>ATOM
      1 N         138.0864  143.0974  160.6919 N.am    1  UNL1       -0.1675
      2 C         139.2066  143.0365  159.6962 C.2     1  UNL1        0.3092
      3 O         140.6305  143.0788  160.1658 O.2     1  UNL1       -0.2515
      4 H         137.1518  143.0697  160.3837 H       1  UNL1        0.2546
      5 C         138.5039  144.9599  165.6151 C.3     1  UNL1        0.0711
      6 C         138.5820  144.0566  164.4202 C.2     1  UNL1        0.1580
      7 N         138.1229  144.3897  163.0315 N.2     1  UNL1       -0.0757
      8 C         138.3901  143.2004  162.1573 C.2     1  UNL1        0.4219
      9 N         139.0143  142.1323  163.0055 N.2     1  UNL1       -0.0878
     10 C         139.1329  142.6614  164.4041 C.3     1  UNL1        0.2545
     11 C         139.7024  141.9248  165.5800 C.ar    1  UNL1        0.0239
     12 C         139.1389  140.5919  165.9748 C.ar    1  UNL1       -0.0006
     13 C         139.7084  139.8553  167.1507 C.ar    1  UNL1        0.0036
     14 C         140.8416  140.4516  167.9321 C.ar    1  UNL1        0.0714
     15 C         141.4052  141.7845  167.5374 C.ar    1  UNL1        0.0036
     16 C         140.8355  142.5211  166.3614 C.ar    1  UNL1       -0.0006
     17 C         141.4111  139.7149  169.1081 C.3     1  UNL1        0.4186
     18 F         141.9807  138.9783  170.2841 F       1  UNL1       -0.1659
     19 F         142.7297  139.6064  168.4015 F       1  UNL1       -0.1659
     20 F         140.0924  139.8235  169.8147 F       1  UNL1       -0.1659
     21 C         138.9028  142.9335  158.2309 C.ar    1  UNL1        0.0883
     22 C         137.9760  141.8656  157.7303 C.ar    1  UNL1        0.0063
     23 C         137.6723  141.7626  156.2650 C.ar    1  UNL1        0.0168
     24 C         138.2954  142.7275  155.3003 C.ar    1  UNL1        0.0960
     25 N         139.2222  143.7954  155.8009 N.ar    1  UNL1       -0.2427
     26 C         139.5259  143.8984  157.2661 C.ar    1  UNL1        0.1307
     27 C         140.4527  144.9664  157.7668 C.3     1  UNL1        0.3583
     28 F         141.9344  144.7326  157.7696 F       1  UNL1       -0.1915
     29 F         139.8979  146.2680  158.2646 F       1  UNL1       -0.1915
     30 C         136.7455  140.6947  155.7644 C.3     1  UNL1        0.1179
     31 N         135.5575  140.2877  156.5848 N.am    1  UNL1       -0.3004
     32 C         134.1855  140.3071  155.9788 C.2     1  UNL1        0.2222
     33 O         134.0014  140.7334  154.5525 O.2     1  UNL1       -0.2751
     34 H         135.6782  140.0079  157.5209 H       1  UNL1        0.1497
     35 C         132.9975  139.9001  156.7992 C.3     1  UNL1        0.0765
     36 C         131.6293  140.3957  156.4350 C.3     1  UNL1        0.0096
     37 C         133.1776  138.9977  157.9837 C.3     1  UNL1        0.0096
@<TRIPOS>BOND
     1     5     6    1
     2     6     7    2
     3     7     8    1
     4     8     1    1
     5     1     2   am
     6     2     3    2
     7     2    21    1
     8    21    22   ar
     9    22    23   ar
    10    23    30    1
    11    30    31    1
    12    31    32   am
    13    32    33    2
    14    32    35    1
    15    35    36    1
    16    35    37    1
    17    23    24   ar
    18    24    25   ar
    19    25    26   ar
    20    26    27    1
    21    27    28    1
    22    27    29    1
    23     8     9    2
    24     9    10    1
    25    10    11    1
    26    11    12   ar
    27    12    13   ar
    28    13    14   ar
    29    14    17    1
    30    17    18    1
    31    17    19    1
    32    17    20    1
    33    14    15   ar
    34    15    16   ar
    35    10     6    1
    36    16    11   ar
    37    26    21   ar
    38     1     4    1
    39    31    34    1
@<TRIPOS>MOLECULE
*****
 37 39 0 0 0
SMALL
GASTEIGER

@<TRIPOS>ATOM
      1 N         140.9007  142.4999  160.5183 N.am    1  UNL1       -0.1675
      2 C         142.0040  143.3953  160.0379 C.2     1  UNL1        0.3092
      3 O         142.5400  144.4721  160.9341 O.2     1  UNL1       -0.2515
      4 H         140.5489  141.7932  159.9301 H       1  UNL1        0.2546
      5 C         138.1474  144.3960  164.6056 C.3     1  UNL1        0.0711
      6 C         139.0678  143.5528  163.7738 C.2     1  UNL1        0.1580
      7 N         139.3648  143.7465  162.3162 N.2     1  UNL1       -0.0757
      8 C         140.3333  142.6812  161.8951 C.2     1  UNL1        0.4219
      9 N         140.6348  141.8293  163.0922 N.2     1  UNL1       -0.0878
     10 C         139.8527  142.3679  164.2533 C.3     1  UNL1        0.2545
     11 C         139.8550  141.8182  165.6489 C.ar    1  UNL1        0.0239
     12 C         139.2265  140.4858  165.9313 C.ar    1  UNL1       -0.0006
     13 C         139.2288  139.9361  167.3268 C.ar    1  UNL1        0.0036
     14 C         139.8597  140.7187  168.4402 C.ar    1  UNL1        0.0714
     15 C         140.4883  142.0511  168.1578 C.ar    1  UNL1        0.0036
     16 C         140.4859  142.6008  166.7622 C.ar    1  UNL1       -0.0006
     17 C         139.8621  140.1689  169.8358 C.3     1  UNL1        0.4186
     18 F         139.8644  139.6192  171.2314 F       1  UNL1       -0.1659
     19 F         141.1781  139.5001  169.5701 F       1  UNL1       -0.1659
     20 F         138.5460  140.8378  170.1015 F       1  UNL1       -0.1659
     21 C         142.5713  143.2140  158.6612 C.ar    1  UNL1        0.0883
     22 C         143.7302  142.2867  158.4437 C.ar    1  UNL1        0.0063
     23 C         144.2975  142.1054  157.0670 C.ar    1  UNL1        0.0168
     24 C         143.7059  142.8513  155.9079 C.ar    1  UNL1        0.0960
     25 N         142.5471  143.7786  156.1253 N.ar    1  UNL1       -0.2427
     26 C         141.9798  143.9599  157.5020 C.ar    1  UNL1        0.1307
     27 C         140.8209  144.8871  157.7195 C.3     1  UNL1        0.3583
     28 F         139.4524  144.3296  157.9768 F       1  UNL1       -0.1915
     29 F         141.0306  146.3718  157.6798 F       1  UNL1       -0.1915
     30 C         145.4564  141.1782  156.8495 C.3     1  UNL1        0.1179
     31 N         146.7837  141.7256  156.4153 N.am    1  UNL1       -0.3004
     32 C         147.1936  141.6441  154.9747 C.2     1  UNL1        0.2222
     33 O         146.2763  141.0150  153.9683 O.2     1  UNL1       -0.2751
     34 H         147.3857  142.1385  157.0758 H       1  UNL1        0.1497
     35 C         148.5209  142.1915  154.5405 C.3     1  UNL1        0.0765
     36 C         149.7832  141.6925  155.1790 C.3     1  UNL1        0.0096
     37 C         148.5860  143.2380  153.4679 C.3     1  UNL1        0.0096
@<TRIPOS>BOND
     1     5     6    1
     2     6     7    2
     3     7     8    1
     4     8     1    1
     5     1     2   am
     6     2     3    2
     7     2    21    1
     8    21    22   ar
     9    22    23   ar
    10    23    30    1
    11    30    31    1
    12    31    32   am
    13    32    33    2
    14    32    35    1
    15    35    36    1
    16    35    37    1
    17    23    24   ar
    18    24    25   ar
    19    25    26   ar
    20    26    27    1
    21    27    28    1
    22    27    29    1
    23     8     9    2
    24     9    10    1
    25    10    11    1
    26    11    12   ar
    27    12    13   ar
    28    13    14   ar
    29    14    17    1
    30    17    18    1
    31    17    19    1
    32    17    20    1
    33    14    15   ar
    34    15    16   ar
    35    10     6    1
    36    16    11   ar
    37    26    21   ar
    38     1     4    1
    39    31    34    1
@<TRIPOS>MOLECULE
*****
 37 39 0 0 0
SMALL
GASTEIGER

@<TRIPOS>ATOM
      1 N         138.8830  143.3311  160.2667 N.am    1  UNL1       -0.1675
      2 C         140.1060  143.8712  159.5866 C.2     1  UNL1        0.3092
      3 O         141.2381  144.4195  160.4036 O.2     1  UNL1       -0.2515
      4 H         138.1400  142.9712  159.7305 H       1  UNL1        0.2546
      5 C         137.6493  144.6984  165.2154 C.3     1  UNL1        0.0711
      6 C         138.2251  143.9679  164.0387 C.2     1  UNL1        0.1580
      7 N         138.0475  144.3406  162.5965 N.2     1  UNL1       -0.0757
      8 C         138.7922  143.3394  161.7640 C.2     1  UNL1        0.4219
      9 N         139.4300  142.3480  162.6915 N.2     1  UNL1       -0.0878
     10 C         139.0795  142.7364  164.0973 C.3     1  UNL1        0.2545
     11 C         139.5082  142.0193  165.3430 C.ar    1  UNL1        0.0239
     12 C         138.9888  140.6421  165.6321 C.ar    1  UNL1       -0.0006
     13 C         139.4175  139.9250  166.8778 C.ar    1  UNL1        0.0036
     14 C         140.3657  140.5850  167.8346 C.ar    1  UNL1        0.0714
     15 C         140.8852  141.9622  167.5455 C.ar    1  UNL1        0.0036
     16 C         140.4564  142.6793  166.2997 C.ar    1  UNL1       -0.0006
     17 C         140.7944  139.8679  169.0803 C.3     1  UNL1        0.4186
     18 F         141.2232  139.1507  170.3261 F       1  UNL1       -0.1659
     19 F         139.3941  139.9525  169.6110 F       1  UNL1       -0.1659
     20 F         142.1949  139.7832  168.5496 F       1  UNL1       -0.1659
     21 C         140.1968  143.8629  158.0893 C.ar    1  UNL1        0.0883
     22 C         139.5181  144.9360  157.2908 C.ar    1  UNL1        0.0063
     23 C         139.6090  144.9277  155.7936 C.ar    1  UNL1        0.0168
     24 C         140.3786  143.8463  155.0949 C.ar    1  UNL1        0.0960
     25 N         141.0573  142.7731  155.8934 N.ar    1  UNL1       -0.2427
     26 C         140.9664  142.7814  157.3906 C.ar    1  UNL1        0.1307
     27 C         141.6451  141.7082  158.1892 C.3     1  UNL1        0.3583
     28 F         143.0443  141.9162  158.6883 F       1  UNL1       -0.1915
     29 F         140.9247  140.4271  158.4886 F       1  UNL1       -0.1915
     30 C         138.9303  146.0009  154.9950 C.3     1  UNL1        0.1179
     31 N         138.4657  147.2575  155.6698 N.am    1  UNL1       -0.3004
     32 C         139.0728  148.5774  155.2970 C.2     1  UNL1        0.2222
     33 O         140.1446  148.6410  154.2495 O.2     1  UNL1       -0.2751
     34 H         137.7622  147.2158  156.3573 H       1  UNL1        0.1497
     35 C         138.6082  149.8340  155.9718 C.3     1  UNL1        0.0765
     36 C         138.5852  151.1280  155.2135 C.3     1  UNL1        0.0096
     37 C         138.1666  149.7965  157.4048 C.3     1  UNL1        0.0096
@<TRIPOS>BOND
     1     5     6    1
     2     6     7    2
     3     7     8    1
     4     8     1    1
     5     1     2   am
     6     2     3    2
     7     2    21    1
     8    21    22   ar
     9    22    23   ar
    10    23    30    1
    11    30    31    1
    12    31    32   am
    13    32    33    2
    14    32    35    1
    15    35    36    1
    16    35    37    1
    17    23    24   ar
    18    24    25   ar
    19    25    26   ar
    20    26    27    1
    21    27    28    1
    22    27    29    1
    23     8     9    2
    24     9    10    1
    25    10    11    1
    26    11    12   ar
    27    12    13   ar
    28    13    14   ar
    29    14    17    1
    30    17    18    1
    31    17    19    1
    32    17    20    1
    33    14    15   ar
    34    15    16   ar
    35    10     6    1
    36    16    11   ar
    37    26    21   ar
    38     1     4    1
    39    31    34    1
@<TRIPOS>MOLECULE
*****
 37 39 0 0 0
SMALL
GASTEIGER

@<TRIPOS>ATOM
      1 N         144.1317  138.9975  160.1442 N.am    1  UNL1       -0.1675
      2 C         143.1244  139.4102  159.1122 C.2     1  UNL1        0.3092
      3 O         142.1155  140.4732  159.4320 O.2     1  UNL1       -0.2515
      4 H         144.7939  138.2998  159.9343 H       1  UNL1        0.2546
      5 C         145.1862  142.2929  164.1328 C.3     1  UNL1        0.0711
      6 C         144.6149  141.1624  163.3293 C.2     1  UNL1        0.1580
      7 N         144.9173  140.8618  161.8912 N.2     1  UNL1       -0.0757
      8 C         144.1301  139.6477  161.4960 C.2     1  UNL1        0.4219
      9 N         143.3412  139.1979  162.6898 N.2     1  UNL1       -0.0878
     10 C         143.6407  140.1340  163.8229 C.3     1  UNL1        0.2545
     11 C         143.0669  140.0556  165.2065 C.ar    1  UNL1        0.0239
     12 C         143.4988  138.9609  166.1367 C.ar    1  UNL1       -0.0006
     13 C         142.9251  138.8825  167.5203 C.ar    1  UNL1        0.0036
     14 C         141.9193  139.8987  167.9739 C.ar    1  UNL1        0.0714
     15 C         141.4873  140.9934  167.0437 C.ar    1  UNL1        0.0036
     16 C         142.0612  141.0718  165.6601 C.ar    1  UNL1       -0.0006
     17 C         141.3455  139.8203  169.3576 C.3     1  UNL1        0.4186
     18 F         140.7716  139.7418  170.7413 F       1  UNL1       -0.1659
     19 F         139.9656  139.9909  168.7950 F       1  UNL1       -0.1659
     20 F         142.7255  139.6496  169.9202 F       1  UNL1       -0.1659
     21 C         143.1260  138.7600  157.7604 C.ar    1  UNL1        0.0883
     22 C         142.5471  137.3871  157.5879 C.ar    1  UNL1        0.0063
     23 C         142.5487  136.7369  156.2361 C.ar    1  UNL1        0.0168
     24 C         143.1291  137.4598  155.0569 C.ar    1  UNL1        0.0960
     25 N         143.7080  138.8327  155.2294 N.ar    1  UNL1       -0.2427
     26 C         143.7064  139.4829  156.5812 C.ar    1  UNL1        0.1307
     27 C         144.2853  140.8559  156.7538 C.3     1  UNL1        0.3583
     28 F         143.3763  142.0406  156.8964 F       1  UNL1       -0.1915
     29 F         145.7731  141.0442  156.7837 F       1  UNL1       -0.1915
     30 C         141.9698  135.3639  156.0636 C.3     1  UNL1        0.1179
     31 N         142.8787  134.1818  155.9010 N.am    1  UNL1       -0.3004
     32 C         143.6156  133.6337  157.0870 C.2     1  UNL1        0.2222
     33 O         143.4436  134.2677  158.4355 O.2     1  UNL1       -0.2751
     34 H         142.9916  133.7656  155.0160 H       1  UNL1        0.1497
     35 C         144.5245  132.4515  156.9244 C.3     1  UNL1        0.0765
     36 C         145.5183  132.1165  157.9970 C.3     1  UNL1        0.0096
     37 C         144.4397  131.6044  155.6895 C.3     1  UNL1        0.0096
@<TRIPOS>BOND
     1     5     6    1
     2     6     7    2
     3     7     8    1
     4     8     1    1
     5     1     2   am
     6     2     3    2
     7     2    21    1
     8    21    22   ar
     9    22    23   ar
    10    23    30    1
    11    30    31    1
    12    31    32   am
    13    32    33    2
    14    32    35    1
    15    35    36    1
    16    35    37    1
    17    23    24   ar
    18    24    25   ar
    19    25    26   ar
    20    26    27    1
    21    27    28    1
    22    27    29    1
    23     8     9    2
    24     9    10    1
    25    10    11    1
    26    11    12   ar
    27    12    13   ar
    28    13    14   ar
    29    14    17    1
    30    17    18    1
    31    17    19    1
    32    17    20    1
    33    14    15   ar
    34    15    16   ar
    35    10     6    1
    36    16    11   ar
    37    26    21   ar
    38     1     4    1
    39    31    34    1
