@<TRIPOS>MOLECULE
*****
 71 74 0 0 0
SMALL
GASTEIGER

@<TRIPOS>ATOM
      1 C         154.3958  147.1540  155.3504 C.3     1  UNL1        0.1361
      2 C         154.0322  145.7266  155.0672 C.3     1  UNL1        0.0634
      3 C         153.3670  144.4169  154.7636 C.3     1  UNL1        0.1208
      4 C         154.1450  143.0831  154.6471 C.3     1  UNL1        0.0299
      5 C         153.7553  141.6630  154.3617 C.3     1  UNL1        0.0078
      6 C         152.3175  141.3150  154.1140 C.3     1  UNL1        0.0592
      7 C         151.9278  139.8949  153.8286 C.3     1  UNL1        0.0055
      8 C         151.2691  142.3873  154.1516 C.3     1  UNL1        0.2454
      9 O         151.5464  141.5521  154.0509 O.3     1  UNL1       -0.3580
     10 O         152.4314  143.2861  154.4535 O.3     1  UNL1       -0.3310
     11 C         149.9346  141.7623  153.8719 C.2     1  UNL1        0.2764
     12 O         150.4429  140.3605  153.7085 O.2     1  UNL1       -0.2814
     13 C         148.4900  141.4404  153.6276 C.2     1  UNL1        0.2892
     14 O         148.6860  139.9691  153.4114 O.2     1  UNL1       -0.2666
     15 N         147.0031  141.4367  153.4301 N.am    1  UNL1       -0.2654
     16 C         147.4862  140.0266  153.2619 C.3     1  UNL1        0.0943
     17 C         146.5094  138.9311  152.9523 C.3     1  UNL1        0.0216
     18 C         145.0496  139.2458  152.8107 C.3     1  UNL1        0.0040
     19 C         144.5666  140.6558  152.9788 C.3     1  UNL1        0.0314
     20 C         145.5433  141.7513  153.2885 C.3     1  UNL1        0.1749
     21 C         144.1789  142.3695  153.2096 C.2     1  UNL1        0.3351
     22 O         143.4427  141.0991  152.9029 O.2     1  UNL1       -0.2483
     23 O         142.9737  143.2625  153.1969 O.3     1  UNL1       -0.4507
     24 C         141.9841  144.3884  153.2512 C.3     1  UNL1        0.1761
     25 C         141.2563  145.6946  153.3698 C.3     1  UNL1        0.1083
     26 C         140.8243  147.1201  153.5472 C.2     1  UNL1        0.1579
     27 O         139.3627  146.8769  153.3136 O.2     1  UNL1       -0.2956
     28 C         140.7084  148.5981  153.7751 C.3     1  UNL1        0.0791
     29 C         139.2217  148.6746  153.5908 C.3     1  UNL1        0.0125
     30 C         140.9140  150.0596  154.0429 C.2     1  UNL1       -0.0252
     31 C         141.4314  151.4363  154.3381 C.2     1  UNL1       -0.0186
     32 C         140.1011  152.1265  154.2755 C.3     1  UNL1        0.0286
     33 C         142.2365  152.6636  154.6468 C.3     1  UNL1        0.1627
     34 O         141.0803  153.6192  154.6509 O.3     1  UNL1       -0.3774
     35 C         143.2916  153.6845  154.9546 C.3     1  UNL1        0.2025
     36 C         144.5474  154.4509  155.2470 C.2     1  UNL1        0.1798
     37 O         143.8909  155.7929  155.3810 O.2     1  UNL1       -0.2934
     38 C         145.9452  154.9271  155.5106 C.3     1  UNL1        0.0605
     39 C         145.5909  156.3721  155.7015 C.3     1  UNL1        0.0079
     40 C         147.4196  155.0909  155.7328 C.3     1  UNL1        0.0117
     41 C         148.9016  154.9345  155.9034 C.3     1  UNL1        0.0225
     42 C         149.1866  156.3811  156.1793 C.3     1  UNL1        0.0047
     43 C         150.3220  154.4653  156.0143 C.2     1  UNL1       -0.0265
     44 C         151.6144  153.7052  156.0604 C.2     1  UNL1       -0.0046
     45 C         152.7183  152.6899  156.0394 C.2     1  UNL1       -0.0004
     46 C         153.5821  151.4667  155.9525 C.2     1  UNL1       -0.0006
     47 C         154.1653  150.0928  155.8036 C.2     1  UNL1       -0.0062
     48 C         154.4410  148.6325  155.5997 C.2     1  UNL1       -0.0172
     49 C         155.9238  148.7164  155.8099 C.3     1  UNL1        0.0288
     50 H         152.5081  141.5138  154.1719 H       1  UNL1        0.2132
     51 H         140.2606  153.1358  154.4628 H       1  UNL1        0.2109
     52 C         156.3611  145.6899  156.2132 C.3     1  UNL1        0.1744
     53 O         155.8689  146.9182  155.5067 O.3     1  UNL1       -0.3494
     54 C         140.7733  143.5545  152.9535 C.3     1  UNL1        0.0406
     55 C         140.8623  142.4283  151.9669 C.3     1  UNL1        0.0037
     56 C         139.4733  143.8469  153.6425 C.3     1  UNL1        0.0037
     57 C         139.3612  143.6912  155.1301 C.3     1  UNL1        0.0027
     58 C         138.4603  144.5992  155.9135 C.3     1  UNL1        0.0027
     59 C         138.3482  144.4435  157.4012 C.3     1  UNL1        0.0321
     60 C         139.1371  143.3797  158.1054 C.3     1  UNL1        0.1423
     61 C         140.0380  142.4716  157.3221 C.3     1  UNL1        0.1423
     62 C         140.1501  142.6274  155.8344 C.3     1  UNL1        0.0321
     63 O         140.8269  141.4078  158.0263 O.3     1  UNL1       -0.3511
     64 C         141.8937  140.6536  157.2895 C.3     1  UNL1        0.1741
     65 O         139.0249  143.2239  159.5931 O.3     1  UNL1       -0.3511
     66 C         138.3824  141.9987  160.1727 C.3     1  UNL1        0.1738
     67 C         137.7348  142.0595  161.5244 C.3     1  UNL1        0.1692
     68 O         137.5431  143.3821  162.2053 O.3     1  UNL1       -0.3794
     69 H         138.4086  143.7623  162.4228 H       1  UNL1        0.2105
     70 O         142.3635  154.8607  155.0252 O.3     1  UNL1       -0.3433
     71 C         142.2024  155.7615  153.8366 C.3     1  UNL1        0.1747
@<TRIPOS>BOND
     1    52    53    1
     2     1    53    1
     3     1     2    1
     4     3     2    1
     5     3     4    1
     6     4     5    1
     7     5     6    1
     8     6     7    1
     9     6     8    1
    10     8     9    1
    11     8    10    1
    12     8    11    1
    13    11    12    2
    14    11    13    1
    15    13    14    2
    16    13    15   am
    17    15    16    1
    18    16    17    1
    19    17    18    1
    20    18    19    1
    21    20    19    1
    22    20    21    1
    23    21    22    2
    24    21    23    1
    25    23    24    1
    26    24    54    1
    27    54    55    1
    28    54    56    1
    29    57    56    1
    30    57    58    1
    31    58    59    1
    32    59    60    1
    33    60    65    1
    34    65    66    1
    35    66    67    1
    36    67    68    1
    37    60    61    1
    38    61    63    1
    39    63    64    1
    40    61    62    1
    41    24    25    1
    42    25    26    1
    43    26    27    2
    44    26    28    1
    45    28    29    1
    46    28    30    1
    47    30    31    2
    48    31    32    1
    49    31    33    1
    50    33    34    1
    51    33    35    1
    52    35    70    1
    53    70    71    1
    54    35    36    1
    55    36    37    2
    56    36    38    1
    57    38    39    1
    58    38    40    1
    59    40    41    1
    60    41    42    1
    61    41    43    1
    62    43    44    2
    63    44    45    1
    64    45    46    2
    65    46    47    1
    66    47    48    2
    67    48    49    1
    68    48     1    1
    69    10     3    1
    70    20    15    1
    71    62    57    1
    72     9    50    1
    73    68    69    1
    74    34    51    1
