@<TRIPOS>MOLECULE
*****
 24 25 0 0 0
SMALL
GASTEIGER

@<TRIPOS>ATOM
      1 C         138.7730  140.4052  165.3653 C.ar    1  UNL1        0.1466
      2 N         138.5553  141.4045  164.2681 N.ar    1  UNL1       -0.2017
      3 C         139.1960  142.7584  164.3486 C.ar    1  UNL1        0.2354
      4 N         140.0544  143.1130  165.5264 N.ar    1  UNL1       -0.2015
      5 C         140.2722  142.1138  166.6236 C.ar    1  UNL1        0.1499
      6 C         139.6315  140.7599  166.5431 C.ar    1  UNL1        0.1055
      7 N         139.8493  139.7606  167.6405 N.pl3   1  UNL1       -0.3526
      8 H         140.4128  139.9934  168.4135 H       1  UNL1        0.1425
      9 H         139.4288  138.8720  167.5876 H       1  UNL1        0.1425
     10 N         141.1307  142.4684  167.8015 N.pl3   1  UNL1       -0.2870
     11 C         140.5345  143.1886  168.9744 C.3     1  UNL1        0.1243
     12 C         141.3930  143.5432  170.1523 C.3     1  UNL1        0.1636
     13 O         142.8477  143.1776  170.1572 O.3     1  UNL1       -0.3501
     14 C         143.4440  142.4573  168.9842 C.3     1  UNL1        0.1636
     15 C         142.5855  142.1028  167.8064 C.3     1  UNL1        0.1243
     16 N         138.1323  139.0513  165.2848 N.pl3   1  UNL1       -0.3170
     17 H         137.1565  138.9621  165.3801 H       1  UNL1        0.1482
     18 C         138.9783  137.8335  165.0591 C.3     1  UNL1        0.0881
     19 C         141.0676  137.6506  164.7401 C.3     1  UNL1        0.0017
     20 C         139.8635  137.7485  163.8510 C.3     1  UNL1        0.0180
     21 C         138.6593  137.8464  162.9619 C.3     1  UNL1        0.0017
     22 C         140.7486  137.6635  162.6430 C.3     1  UNL1        0.0017
     23 C         138.9782  143.7577  163.2512 C.1     1  UNL1        0.1400
     24 N         138.7603  144.7569  162.1540 N.1     1  UNL1       -0.1876
@<TRIPOS>BOND
     1    19    20    1
     2    20    21    1
     3    20    22    1
     4    20    18    1
     5    18    16    1
     6    16     1    1
     7     1     2   ar
     8     2     3   ar
     9     3    23    1
    10    23    24    3
    11     3     4   ar
    12     4     5   ar
    13     5    10    1
    14    10    11    1
    15    11    12    1
    16    12    13    1
    17    13    14    1
    18    14    15    1
    19     5     6   ar
    20     6     7    1
    21     6     1   ar
    22    15    10    1
    23    16    17    1
    24     7     8    1
    25     7     9    1
@<TRIPOS>MOLECULE
*****
 24 25 0 0 0
SMALL
GASTEIGER

@<TRIPOS>ATOM
      1 C         139.3657  140.1424  166.0373 C.ar    1  UNL1        0.1466
      2 N         139.3959  140.2176  167.5350 N.ar    1  UNL1       -0.2017
      3 C         140.1922  141.2909  168.2162 C.ar    1  UNL1        0.2354
      4 N         140.9582  142.2890  167.3996 N.ar    1  UNL1       -0.2015
      5 C         140.9280  142.2138  165.9018 C.ar    1  UNL1        0.1499
      6 C         140.1317  141.1406  165.2207 C.ar    1  UNL1        0.1055
      7 N         140.1015  141.0654  163.7228 N.pl3   1  UNL1       -0.3526
      8 H         140.6043  141.7206  163.1868 H       1  UNL1        0.1425
      9 H         139.5788  140.3610  163.2757 H       1  UNL1        0.1425
     10 N         141.6941  143.2120  165.0851 N.pl3   1  UNL1       -0.2870
     11 C         143.1835  143.0906  164.9563 C.3     1  UNL1        0.1243
     12 C         143.9496  144.0887  164.1397 C.3     1  UNL1        0.1636
     13 O         143.2261  145.2083  163.4518 O.3     1  UNL1       -0.3501
     14 C         141.7365  145.3297  163.5806 C.3     1  UNL1        0.1636
     15 C         140.9706  144.3316  164.3973 C.3     1  UNL1        0.1243
     16 N         138.5694  139.0692  165.3561 N.pl3   1  UNL1       -0.3170
     17 H         137.6301  139.2335  165.1112 H       1  UNL1        0.1482
     18 C         139.2042  137.7455  165.0480 C.3     1  UNL1        0.0881
     19 C         138.8422  137.7859  162.9582 C.3     1  UNL1        0.0017
     20 C         140.0529  137.5881  163.8213 C.3     1  UNL1        0.0180
     21 C         141.2637  137.3904  164.6845 C.3     1  UNL1        0.0017
     22 C         140.9017  137.4307  162.5946 C.3     1  UNL1        0.0017
     23 C         140.2224  141.3660  169.7141 C.1     1  UNL1        0.1400
     24 N         140.2526  141.4411  171.2119 N.1     1  UNL1       -0.1876
@<TRIPOS>BOND
     1    19    20    1
     2    20    21    1
     3    20    22    1
     4    20    18    1
     5    18    16    1
     6    16     1    1
     7     1     2   ar
     8     2     3   ar
     9     3    23    1
    10    23    24    3
    11     3     4   ar
    12     4     5   ar
    13     5    10    1
    14    10    11    1
    15    11    12    1
    16    12    13    1
    17    13    14    1
    18    14    15    1
    19     5     6   ar
    20     6     7    1
    21     6     1   ar
    22    15    10    1
    23    16    17    1
    24     7     8    1
    25     7     9    1
@<TRIPOS>MOLECULE
*****
 24 25 0 0 0
SMALL
GASTEIGER

@<TRIPOS>ATOM
      1 C         141.3733  140.8834  166.7953 C.ar    1  UNL1        0.1466
      2 N         140.3497  139.8844  167.2471 N.ar    1  UNL1       -0.2017
      3 C         139.0338  139.7842  166.5342 C.ar    1  UNL1        0.2354
      4 N         138.7414  140.6830  165.3695 N.ar    1  UNL1       -0.2015
      5 C         139.7650  141.6820  164.9177 C.ar    1  UNL1        0.1499
      6 C         141.0809  141.7822  165.6305 C.ar    1  UNL1        0.1055
      7 N         142.1045  142.7813  165.1786 N.pl3   1  UNL1       -0.3526
      8 H         141.9126  143.3712  164.4142 H       1  UNL1        0.1425
      9 H         142.9683  142.8471  165.6465 H       1  UNL1        0.1425
     10 N         139.4726  142.5809  163.7529 N.pl3   1  UNL1       -0.2870
     11 C         138.8502  143.9263  163.9815 C.3     1  UNL1        0.1243
     12 C         138.5578  144.8252  162.8167 C.3     1  UNL1        0.1636
     13 O         138.8880  144.3785  161.4233 O.3     1  UNL1       -0.3501
     14 C         139.5104  143.0330  161.1947 C.3     1  UNL1        0.1636
     15 C         139.8028  142.1342  162.3595 C.3     1  UNL1        0.1243
     16 N         142.6893  140.9836  167.5081 N.pl3   1  UNL1       -0.3170
     17 H         143.4272  140.3782  167.2668 H       1  UNL1        0.1482
     18 C         142.8810  142.0062  168.5886 C.3     1  UNL1        0.0881
     19 C         142.9360  140.5569  170.1367 C.3     1  UNL1        0.0017
     20 C         142.1914  141.8392  169.9102 C.3     1  UNL1        0.0180
     21 C         141.4468  143.1215  169.6837 C.3     1  UNL1        0.0017
     22 C         141.5018  141.6722  171.2318 C.3     1  UNL1        0.0017
     23 C         138.0101  138.7851  166.9862 C.1     1  UNL1        0.1400
     24 N         136.9866  137.7861  167.4380 N.1     1  UNL1       -0.1876
@<TRIPOS>BOND
     1    19    20    1
     2    20    21    1
     3    20    22    1
     4    20    18    1
     5    18    16    1
     6    16     1    1
     7     1     2   ar
     8     2     3   ar
     9     3    23    1
    10    23    24    3
    11     3     4   ar
    12     4     5   ar
    13     5    10    1
    14    10    11    1
    15    11    12    1
    16    12    13    1
    17    13    14    1
    18    14    15    1
    19     5     6   ar
    20     6     7    1
    21     6     1   ar
    22    15    10    1
    23    16    17    1
    24     7     8    1
    25     7     9    1
@<TRIPOS>MOLECULE
*****
 24 25 0 0 0
SMALL
GASTEIGER

@<TRIPOS>ATOM
      1 C         142.2177  140.1715  164.7798 C.ar    1  UNL1        0.1466
      2 N         142.7743  140.5418  166.1226 N.ar    1  UNL1       -0.2017
      3 C         142.5531  141.9198  166.6721 C.ar    1  UNL1        0.2354
      4 N         141.7753  142.9277  165.8789 N.ar    1  UNL1       -0.2015
      5 C         141.2187  142.5574  164.5361 C.ar    1  UNL1        0.1499
      6 C         141.4399  141.1794  163.9866 C.ar    1  UNL1        0.1055
      7 N         140.8833  140.8092  162.6437 N.pl3   1  UNL1       -0.3526
      8 H         140.3728  141.4707  162.1231 H       1  UNL1        0.1425
      9 H         141.0285  139.9047  162.2830 H       1  UNL1        0.1425
     10 N         140.4409  143.5653  163.7428 N.pl3   1  UNL1       -0.2870
     11 C         141.1623  144.5780  162.9039 C.3     1  UNL1        0.1243
     12 C         140.3844  145.5859  162.1106 C.3     1  UNL1        0.1636
     13 O         138.8852  145.5809  162.1563 O.3     1  UNL1       -0.3501
     14 C         138.1637  144.5681  162.9953 C.3     1  UNL1        0.1636
     15 C         138.9416  143.5604  163.7885 C.3     1  UNL1        0.1243
     16 N         142.4390  138.7935  164.2302 N.pl3   1  UNL1       -0.3170
     17 H         143.2274  138.6073  163.6708 H       1  UNL1        0.1482
     18 C         141.4589  137.6991  164.5330 C.3     1  UNL1        0.0881
     19 C         140.9024  137.4292  162.5038 C.3     1  UNL1        0.0017
     20 C         140.1576  137.6310  163.7901 C.3     1  UNL1        0.0180
     21 C         139.4127  137.8328  165.0763 C.3     1  UNL1        0.0017
     22 C         138.8562  137.5629  163.0472 C.3     1  UNL1        0.0017
     23 C         143.1098  142.2900  168.0150 C.1     1  UNL1        0.1400
     24 N         143.6664  142.6602  169.3577 N.1     1  UNL1       -0.1876
@<TRIPOS>BOND
     1    19    20    1
     2    20    21    1
     3    20    22    1
     4    20    18    1
     5    18    16    1
     6    16     1    1
     7     1     2   ar
     8     2     3   ar
     9     3    23    1
    10    23    24    3
    11     3     4   ar
    12     4     5   ar
    13     5    10    1
    14    10    11    1
    15    11    12    1
    16    12    13    1
    17    13    14    1
    18    14    15    1
    19     5     6   ar
    20     6     7    1
    21     6     1   ar
    22    15    10    1
    23    16    17    1
    24     7     8    1
    25     7     9    1
@<TRIPOS>MOLECULE
*****
 24 25 0 0 0
SMALL
GASTEIGER

@<TRIPOS>ATOM
      1 C         140.8855  141.0164  164.7919 C.ar    1  UNL1        0.1466
      2 N         140.0242  140.3214  165.8044 N.ar    1  UNL1       -0.2017
      3 C         138.8985  139.4392  165.3522 C.ar    1  UNL1        0.2354
      4 N         138.6340  139.2519  163.8877 N.ar    1  UNL1       -0.2015
      5 C         139.4953  139.9469  162.8752 C.ar    1  UNL1        0.1499
      6 C         140.6211  140.8291  163.3273 C.ar    1  UNL1        0.1055
      7 N         141.4824  141.5241  162.3148 N.pl3   1  UNL1       -0.3526
      8 H         141.3088  141.4012  161.3535 H       1  UNL1        0.1425
      9 H         142.2213  142.1032  162.6115 H       1  UNL1        0.1425
     10 N         139.2309  139.7597  161.4106 N.pl3   1  UNL1       -0.2870
     11 C         139.9860  138.7181  160.6393 C.3     1  UNL1        0.1243
     12 C         139.7215  138.5309  159.1747 C.3     1  UNL1        0.1636
     13 O         138.7021  139.3853  158.4814 O.3     1  UNL1       -0.3501
     14 C         137.9470  140.4270  159.2528 C.3     1  UNL1        0.1636
     15 C         138.2115  140.6141  160.7173 C.3     1  UNL1        0.1243
     16 N         142.0113  141.8986  165.2440 N.pl3   1  UNL1       -0.3170
     17 H         141.8683  142.8677  165.3421 H       1  UNL1        0.1482
     18 C         143.3548  141.3043  165.5466 C.3     1  UNL1        0.0881
     19 C         144.5122  140.0498  164.2869 C.3     1  UNL1        0.0017
     20 C         144.4992  141.5167  164.6003 C.3     1  UNL1        0.0180
     21 C         144.4862  142.9835  164.9137 C.3     1  UNL1        0.0017
     22 C         145.6435  141.7290  163.6541 C.3     1  UNL1        0.0017
     23 C         138.0372  138.7442  166.3648 C.1     1  UNL1        0.1400
     24 N         137.1758  138.0492  167.3773 N.1     1  UNL1       -0.1876
@<TRIPOS>BOND
     1    19    20    1
     2    20    21    1
     3    20    22    1
     4    20    18    1
     5    18    16    1
     6    16     1    1
     7     1     2   ar
     8     2     3   ar
     9     3    23    1
    10    23    24    3
    11     3     4   ar
    12     4     5   ar
    13     5    10    1
    14    10    11    1
    15    11    12    1
    16    12    13    1
    17    13    14    1
    18    14    15    1
    19     5     6   ar
    20     6     7    1
    21     6     1   ar
    22    15    10    1
    23    16    17    1
    24     7     8    1
    25     7     9    1
@<TRIPOS>MOLECULE
*****
 24 25 0 0 0
SMALL
GASTEIGER

@<TRIPOS>ATOM
      1 C         142.5217  143.0142  164.7151 C.ar    1  UNL1        0.1466
      2 N         141.4736  143.5800  163.8034 N.ar    1  UNL1       -0.2017
      3 C         140.0546  143.6995  164.2749 C.ar    1  UNL1        0.2354
      4 N         139.6838  143.2533  165.6581 N.ar    1  UNL1       -0.2015
      5 C         140.7319  142.6875  166.5698 C.ar    1  UNL1        0.1499
      6 C         142.1509  142.5680  166.0983 C.ar    1  UNL1        0.1055
      7 N         143.1990  142.0022  167.0102 N.pl3   1  UNL1       -0.3526
      8 H         142.9556  141.7093  167.9180 H       1  UNL1        0.1425
      9 H         144.1303  141.9237  166.7007 H       1  UNL1        0.1425
     10 N         140.3611  142.2412  167.9531 N.pl3   1  UNL1       -0.2870
     11 C         139.9331  140.8240  168.1944 C.3     1  UNL1        0.1243
     12 C         139.5623  140.3777  169.5777 C.3     1  UNL1        0.1636
     13 O         139.6195  141.3487  170.7196 O.3     1  UNL1       -0.3501
     14 C         140.0476  142.7660  170.4782 C.3     1  UNL1        0.1636
     15 C         140.4183  143.2122  169.0950 C.3     1  UNL1        0.1243
     16 N         143.9407  142.8947  164.2437 N.pl3   1  UNL1       -0.3170
     17 H         144.6627  143.3481  164.7358 H       1  UNL1        0.1482
     18 C         144.2595  142.0843  163.0224 C.3     1  UNL1        0.0881
     19 C         145.2947  140.5957  164.1233 C.3     1  UNL1        0.0017
     20 C         144.2138  140.5863  163.0833 C.3     1  UNL1        0.0180
     21 C         143.1330  140.5768  162.0433 C.3     1  UNL1        0.0017
     22 C         144.1682  139.0882  163.1443 C.3     1  UNL1        0.0017
     23 C         139.0065  144.2653  163.3630 C.1     1  UNL1        0.1400
     24 N         137.9584  144.8311  162.4513 N.1     1  UNL1       -0.1876
@<TRIPOS>BOND
     1    19    20    1
     2    20    21    1
     3    20    22    1
     4    20    18    1
     5    18    16    1
     6    16     1    1
     7     1     2   ar
     8     2     3   ar
     9     3    23    1
    10    23    24    3
    11     3     4   ar
    12     4     5   ar
    13     5    10    1
    14    10    11    1
    15    11    12    1
    16    12    13    1
    17    13    14    1
    18    14    15    1
    19     5     6   ar
    20     6     7    1
    21     6     1   ar
    22    15    10    1
    23    16    17    1
    24     7     8    1
    25     7     9    1
@<TRIPOS>MOLECULE
*****
 24 25 0 0 0
SMALL
GASTEIGER

@<TRIPOS>ATOM
      1 C         140.1939  140.9414  164.8680 C.ar    1  UNL1        0.1466
      2 N         139.1683  139.9089  165.2315 N.ar    1  UNL1       -0.2017
      3 C         138.8815  139.6118  166.6735 C.ar    1  UNL1        0.2354
      4 N         139.6203  140.3472  167.7521 N.ar    1  UNL1       -0.2015
      5 C         140.6458  141.3797  167.3886 C.ar    1  UNL1        0.1499
      6 C         140.9326  141.6768  165.9466 C.ar    1  UNL1        0.1055
      7 N         141.9583  142.7094  165.5832 N.pl3   1  UNL1       -0.3526
      8 H         142.4431  143.1920  166.2911 H       1  UNL1        0.1425
      9 H         142.1465  142.9044  164.6367 H       1  UNL1        0.1425
     10 N         141.3846  142.1152  168.4672 N.pl3   1  UNL1       -0.2870
     11 C         142.8160  141.7762  168.7610 C.3     1  UNL1        0.1243
     12 C         143.5548  142.5116  169.8396 C.3     1  UNL1        0.1636
     13 O         142.8622  143.5861  170.6244 O.3     1  UNL1       -0.3501
     14 C         141.4308  143.9251  170.3306 C.3     1  UNL1        0.1636
     15 C         140.6921  143.1896  169.2520 C.3     1  UNL1        0.1243
     16 N         140.4807  141.2385  163.4260 N.pl3   1  UNL1       -0.3170
     17 H         141.3867  141.1014  163.0659 H       1  UNL1        0.1482
     18 C         139.3872  141.7444  162.5326 C.3     1  UNL1        0.0881
     19 C         137.3713  142.0931  163.0934 C.3     1  UNL1        0.0017
     20 C         138.5908  142.9513  162.9315 C.3     1  UNL1        0.0180
     21 C         139.8104  143.8096  162.7697 C.3     1  UNL1        0.0017
     22 C         137.7945  144.1583  163.3305 C.3     1  UNL1        0.0017
     23 C         137.8559  138.5793  167.0369 C.1     1  UNL1        0.1400
     24 N         136.8303  137.5468  167.4003 N.1     1  UNL1       -0.1876
@<TRIPOS>BOND
     1    19    20    1
     2    20    21    1
     3    20    22    1
     4    20    18    1
     5    18    16    1
     6    16     1    1
     7     1     2   ar
     8     2     3   ar
     9     3    23    1
    10    23    24    3
    11     3     4   ar
    12     4     5   ar
    13     5    10    1
    14    10    11    1
    15    11    12    1
    16    12    13    1
    17    13    14    1
    18    14    15    1
    19     5     6   ar
    20     6     7    1
    21     6     1   ar
    22    15    10    1
    23    16    17    1
    24     7     8    1
    25     7     9    1
@<TRIPOS>MOLECULE
*****
 24 25 0 0 0
SMALL
GASTEIGER

@<TRIPOS>ATOM
      1 C         142.0600  140.9307  165.9666 C.ar    1  UNL1        0.1466
      2 N         141.4411  140.8117  167.3277 N.ar    1  UNL1       -0.2017
      3 C         140.0203  140.3517  167.4679 C.ar    1  UNL1        0.2354
      4 N         139.2184  140.0106  166.2470 N.ar    1  UNL1       -0.2015
      5 C         139.8374  140.1296  164.8859 C.ar    1  UNL1        0.1499
      6 C         141.2582  140.5897  164.7457 C.ar    1  UNL1        0.1055
      7 N         141.8771  140.7086  163.3845 N.pl3   1  UNL1       -0.3526
      8 H         141.3508  140.4848  162.5831 H       1  UNL1        0.1425
      9 H         142.8096  141.0106  163.2924 H       1  UNL1        0.1425
     10 N         139.0355  139.7885  163.6649 N.pl3   1  UNL1       -0.2870
     11 C         138.9075  138.3597  163.2266 C.3     1  UNL1        0.1243
     12 C         138.1056  138.0187  162.0056 C.3     1  UNL1        0.1636
     13 O         137.4318  139.1065  161.2229 O.3     1  UNL1       -0.3501
     14 C         137.5599  140.5354  161.6612 C.3     1  UNL1        0.1636
     15 C         138.3617  140.8764  162.8821 C.3     1  UNL1        0.1243
     16 N         143.4808  141.3907  165.8264 N.pl3   1  UNL1       -0.3170
     17 H         144.2188  140.7465  165.9242 H       1  UNL1        0.1482
     18 C         143.7773  142.8324  165.5371 C.3     1  UNL1        0.0881
     19 C         145.2047  142.2282  164.0889 C.3     1  UNL1        0.0017
     20 C         144.1194  143.2623  164.1414 C.3     1  UNL1        0.0180
     21 C         143.0342  144.2964  164.1939 C.3     1  UNL1        0.0017
     22 C         144.4616  143.6923  162.7456 C.3     1  UNL1        0.0017
     23 C         139.4013  140.2327  168.8291 C.1     1  UNL1        0.1400
     24 N         138.7824  140.1136  170.1902 N.1     1  UNL1       -0.1876
@<TRIPOS>BOND
     1    19    20    1
     2    20    21    1
     3    20    22    1
     4    20    18    1
     5    18    16    1
     6    16     1    1
     7     1     2   ar
     8     2     3   ar
     9     3    23    1
    10    23    24    3
    11     3     4   ar
    12     4     5   ar
    13     5    10    1
    14    10    11    1
    15    11    12    1
    16    12    13    1
    17    13    14    1
    18    14    15    1
    19     5     6   ar
    20     6     7    1
    21     6     1   ar
    22    15    10    1
    23    16    17    1
    24     7     8    1
    25     7     9    1
@<TRIPOS>MOLECULE
*****
 24 25 0 0 0
SMALL
GASTEIGER

@<TRIPOS>ATOM
      1 C         141.6054  140.1796  165.1530 C.ar    1  UNL1        0.1466
      2 N         140.9078  141.2056  164.3099 N.ar    1  UNL1       -0.2017
      3 C         140.4047  142.4732  164.9345 C.ar    1  UNL1        0.2354
      4 N         140.5992  142.7149  166.4020 N.ar    1  UNL1       -0.2015
      5 C         141.2967  141.6889  167.2450 C.ar    1  UNL1        0.1499
      6 C         141.7998  140.4213  166.6205 C.ar    1  UNL1        0.1055
      7 N         142.4974  139.3953  167.4636 N.pl3   1  UNL1       -0.3526
      8 H         142.6251  139.5539  168.4268 H       1  UNL1        0.1425
      9 H         142.8276  138.5633  167.0537 H       1  UNL1        0.1425
     10 N         141.4912  141.9305  168.7127 N.pl3   1  UNL1       -0.2870
     11 C         142.7346  142.6118  169.2023 C.3     1  UNL1        0.1243
     12 C         142.9291  142.8535  170.6699 C.3     1  UNL1        0.1636
     13 O         141.8802  142.4137  171.6478 O.3     1  UNL1       -0.3501
     14 C         140.6368  141.7324  171.1582 C.3     1  UNL1        0.1636
     15 C         140.4423  141.4908  169.6906 C.3     1  UNL1        0.1243
     16 N         142.1085  138.9120  164.5284 N.pl3   1  UNL1       -0.3170
     17 H         143.0095  138.8820  164.1328 H       1  UNL1        0.1482
     18 C         141.2388  137.6901  164.5067 C.3     1  UNL1        0.0881
     19 C         140.7919  137.7689  162.4345 C.3     1  UNL1        0.0017
     20 C         139.9793  137.6803  163.6922 C.3     1  UNL1        0.0180
     21 C         139.1666  137.5916  164.9498 C.3     1  UNL1        0.0017
     22 C         138.7198  137.6705  162.8776 C.3     1  UNL1        0.0017
     23 C         139.7071  143.4992  164.0913 C.1     1  UNL1        0.1400
     24 N         139.0095  144.5251  163.2483 N.1     1  UNL1       -0.1876
@<TRIPOS>BOND
     1    19    20    1
     2    20    21    1
     3    20    22    1
     4    20    18    1
     5    18    16    1
     6    16     1    1
     7     1     2   ar
     8     2     3   ar
     9     3    23    1
    10    23    24    3
    11     3     4   ar
    12     4     5   ar
    13     5    10    1
    14    10    11    1
    15    11    12    1
    16    12    13    1
    17    13    14    1
    18    14    15    1
    19     5     6   ar
    20     6     7    1
    21     6     1   ar
    22    15    10    1
    23    16    17    1
    24     7     8    1
    25     7     9    1
