@<TRIPOS>MOLECULE
*****
 35 38 0 0 0
SMALL
GASTEIGER

@<TRIPOS>ATOM
      1 N         138.8895  140.1242  165.8268 N.3     1  UNL1       -0.2691
      2 C         140.1418  140.7063  166.4124 C.3     1  UNL1        0.0724
      3 C         140.5958  142.0756  166.0014 C.3     1  UNL1        0.0188
      4 C         139.7975  142.8628  165.0048 C.3     1  UNL1        0.0188
      5 C         138.5452  142.2807  164.4192 C.3     1  UNL1        0.0188
      6 C         138.0912  140.9113  164.8302 C.3     1  UNL1        0.0724
      7 C         138.4355  138.7548  166.2378 C.3     1  UNL1        0.0987
      8 C         137.7170  138.5625  167.5404 C.2     1  UNL1        0.0652
      9 O         136.5681  137.6022  167.6286 O.co2   1  UNL1       -0.5478
     10 O         138.1475  139.3304  168.7549 O.co2   1  UNL1       -0.5478
     11 C         138.6999  137.5780  165.3462 C.3     1  UNL1        0.0480
     12 C         141.5195  137.9830  161.8625 C.ar    1  UNL1        0.1387
     13 C         140.0375  138.0436  161.6389 C.ar    1  UNL1        0.0366
     14 C         139.0976  137.9085  162.8001 C.ar    1  UNL1       -0.0011
     15 C         139.6398  137.7130  164.1850 C.ar    1  UNL1       -0.0203
     16 C         141.1217  137.6524  164.4086 C.ar    1  UNL1       -0.0011
     17 C         142.0616  137.7874  163.2473 C.ar    1  UNL1        0.0366
     18 C         143.9331  138.2597  160.9417 C.3     1  UNL1        0.2525
     19 O         142.4593  138.1180  160.7013 O.3     1  UNL1       -0.4714
     20 C         140.2516  144.2320  164.5939 C.3     1  UNL1        0.0721
     21 N         140.5976  144.5088  163.1608 N.3     1  UNL1       -0.2724
     22 C         141.7305  143.7742  162.5075 C.3     1  UNL1        0.0758
     23 C         142.0766  144.0510  161.0744 C.3     1  UNL1        0.0609
     24 C         141.2897  145.0623  160.2947 C.3     1  UNL1        0.1687
     25 C         140.1568  145.7969  160.9480 C.3     1  UNL1        0.0609
     26 C         139.8108  145.5201  162.3811 C.3     1  UNL1        0.0758
     27 O         141.6358  145.3391  158.8616 O.3     1  UNL1       -0.4790
     28 C         140.5864  145.2080  157.7979 C.ar    1  UNL1        0.1393
     29 C         139.9100  143.8886  157.5702 C.ar    1  UNL1        0.0378
     30 C         138.8607  143.7575  156.5064 C.ar    1  UNL1        0.0154
     31 C         138.4877  144.9457  155.6703 C.ar    1  UNL1        0.0684
     32 CL        137.4383  144.8145  154.6065 Cl      1  UNL1       -0.0814
     33 C         139.1640  146.2650  155.8980 C.ar    1  UNL1        0.0712
     34 CL        138.7911  147.4532  155.0619 Cl      1  UNL1       -0.0813
     35 C         140.2135  146.3962  156.9618 C.ar    1  UNL1        0.0491
@<TRIPOS>UNITY_ATOM_ATTR
9 1
charge -1
@<TRIPOS>BOND
     1    18    19    1
     2    19    12    1
     3    12    13   ar
     4    13    14   ar
     5    14    15   ar
     6    15    11    1
     7     7    11    1
     8     7     8    1
     9     8     9   ar
    10     8    10   ar
    11     7     1    1
    12     1     2    1
    13     2     3    1
    14     3     4    1
    15     4    20    1
    16    20    21    1
    17    21    22    1
    18    22    23    1
    19    23    24    1
    20    24    27    1
    21    27    28    1
    22    28    29   ar
    23    29    30   ar
    24    30    31   ar
    25    31    32    1
    26    31    33   ar
    27    33    34    1
    28    33    35   ar
    29    24    25    1
    30    25    26    1
    31     4     5    1
    32     5     6    1
    33    15    16   ar
    34    16    17   ar
    35    17    12   ar
    36     6     1    1
    37    26    21    1
    38    35    28   ar
@<TRIPOS>MOLECULE
*****
 35 38 0 0 0
SMALL
GASTEIGER

@<TRIPOS>ATOM
      1 N         140.5870  140.6157  167.3695 N.3     1  UNL1       -0.2691
      2 C         141.7590  139.7583  166.9939 C.3     1  UNL1        0.0724
      3 C         142.9135  140.3530  166.2434 C.3     1  UNL1        0.0188
      4 C         142.8960  141.8054  165.8684 C.3     1  UNL1        0.0188
      5 C         141.7239  142.6628  166.2440 C.3     1  UNL1        0.0188
      6 C         140.5694  142.0680  166.9946 C.3     1  UNL1        0.0724
      7 C         139.4324  140.0209  168.1201 C.3     1  UNL1        0.0987
      8 C         139.2862  140.2707  169.5919 C.2     1  UNL1        0.0652
      9 O         138.0051  139.9194  170.2886 O.co2   1  UNL1       -0.5478
     10 O         140.4211  140.8718  170.3671 O.co2   1  UNL1       -0.5478
     11 C         138.4243  139.1763  167.3989 C.3     1  UNL1        0.0480
     12 C         138.4754  138.9570  162.9046 C.ar    1  UNL1        0.1387
     13 C         138.8903  137.7672  163.7183 C.ar    1  UNL1        0.0366
     14 C         138.8733  137.8403  165.2164 C.ar    1  UNL1       -0.0011
     15 C         138.4413  139.1032  165.9008 C.ar    1  UNL1       -0.0203
     16 C         138.0264  140.2930  165.0871 C.ar    1  UNL1       -0.0011
     17 C         138.0435  140.2199  163.5890 C.ar    1  UNL1        0.0366
     18 C         137.5085  139.6838  160.6053 C.3     1  UNL1        0.2525
     19 O         138.4925  138.8839  161.4064 O.3     1  UNL1       -0.4714
     20 C         144.0504  142.4001  165.1179 C.3     1  UNL1        0.0721
     21 N         143.9339  142.6593  163.6450 N.3     1  UNL1       -0.2724
     22 C         142.8935  143.6095  163.1307 C.3     1  UNL1        0.0758
     23 C         142.7769  143.8686  161.6579 C.3     1  UNL1        0.0609
     24 C         143.7008  143.1775  160.6993 C.3     1  UNL1        0.1687
     25 C         144.7412  142.2273  161.2136 C.3     1  UNL1        0.0609
     26 C         144.8578  141.9682  162.6865 C.3     1  UNL1        0.0758
     27 O         143.5842  143.4367  159.2265 O.3     1  UNL1       -0.4790
     28 C         144.0032  142.3833  158.2442 C.ar    1  UNL1        0.1393
     29 C         143.1105  141.2074  157.9791 C.ar    1  UNL1        0.0378
     30 C         143.5294  140.1541  156.9968 C.ar    1  UNL1        0.0154
     31 C         144.8411  140.2767  156.2795 C.ar    1  UNL1        0.0684
     32 CL        145.2601  139.2233  155.2972 Cl      1  UNL1       -0.0814
     33 C         145.7338  141.4525  156.5446 C.ar    1  UNL1        0.0712
     34 CL        147.0455  141.5751  155.8273 Cl      1  UNL1       -0.0813
     35 C         145.3149  142.5059  157.5269 C.ar    1  UNL1        0.0491
@<TRIPOS>UNITY_ATOM_ATTR
9 1
charge -1
@<TRIPOS>BOND
     1    18    19    1
     2    19    12    1
     3    12    13   ar
     4    13    14   ar
     5    14    15   ar
     6    15    11    1
     7     7    11    1
     8     7     8    1
     9     8     9   ar
    10     8    10   ar
    11     7     1    1
    12     1     2    1
    13     2     3    1
    14     3     4    1
    15     4    20    1
    16    20    21    1
    17    21    22    1
    18    22    23    1
    19    23    24    1
    20    24    27    1
    21    27    28    1
    22    28    29   ar
    23    29    30   ar
    24    30    31   ar
    25    31    32    1
    26    31    33   ar
    27    33    34    1
    28    33    35   ar
    29    24    25    1
    30    25    26    1
    31     4     5    1
    32     5     6    1
    33    15    16   ar
    34    16    17   ar
    35    17    12   ar
    36     6     1    1
    37    26    21    1
    38    35    28   ar
@<TRIPOS>MOLECULE
*****
 35 38 0 0 0
SMALL
GASTEIGER

@<TRIPOS>ATOM
      1 N         141.4817  140.0587  166.9216 N.3     1  UNL1       -0.2691
      2 C         142.3751  138.8917  166.6216 C.3     1  UNL1        0.0724
      3 C         143.5245  139.0519  165.6712 C.3     1  UNL1        0.0188
      4 C         143.7806  140.3791  165.0208 C.3     1  UNL1        0.0188
      5 C         142.8872  141.5461  165.3209 C.3     1  UNL1        0.0188
      6 C         141.7378  141.3859  166.2713 C.3     1  UNL1        0.0724
      7 C         140.3323  139.8984  167.8720 C.3     1  UNL1        0.0987
      8 C         140.5389  140.1145  169.3419 C.2     1  UNL1        0.0652
      9 O         141.8803  140.5470  169.8552 O.co2   1  UNL1       -0.5478
     10 O         139.4039  139.8980  170.2986 O.co2   1  UNL1       -0.5478
     11 C         138.9764  139.5221  167.3525 C.3     1  UNL1        0.0480
     12 C         138.3476  138.9131  162.9385 C.ar    1  UNL1        0.1387
     13 C         138.0893  140.2560  163.5546 C.ar    1  UNL1        0.0366
     14 C         138.2989  140.4591  165.0259 C.ar    1  UNL1       -0.0011
     15 C         138.7668  139.3191  165.8812 C.ar    1  UNL1       -0.0203
     16 C         139.0251  137.9761  165.2651 C.ar    1  UNL1       -0.0011
     17 C         138.8155  137.7731  163.7937 C.ar    1  UNL1        0.0366
     18 C         137.4581  139.7707  160.6530 C.3     1  UNL1        0.2525
     19 O         138.1380  138.7100  161.4672 O.3     1  UNL1       -0.4714
     20 C         144.9299  140.5393  164.0705 C.3     1  UNL1        0.0721
     21 N         144.6767  140.9454  162.6489 N.3     1  UNL1       -0.2724
     22 C         144.9069  142.3648  162.2220 C.3     1  UNL1        0.0758
     23 C         144.6536  142.7710  160.8004 C.3     1  UNL1        0.0609
     24 C         144.1702  141.7577  159.8057 C.3     1  UNL1        0.1687
     25 C         143.9400  140.3383  160.2326 C.3     1  UNL1        0.0609
     26 C         144.1932  139.9322  161.6542 C.3     1  UNL1        0.0758
     27 O         143.9169  142.1639  158.3841 O.3     1  UNL1       -0.4790
     28 C         145.0035  142.0247  157.3594 C.ar    1  UNL1        0.1393
     29 C         146.3131  142.7297  157.5545 C.ar    1  UNL1        0.0378
     30 C         147.3997  142.5905  156.5298 C.ar    1  UNL1        0.0154
     31 C         147.1767  141.7465  155.3101 C.ar    1  UNL1        0.0684
     32 CL        148.2633  141.6074  154.2853 Cl      1  UNL1       -0.0814
     33 C         145.8671  141.0415  155.1150 C.ar    1  UNL1        0.0712
     34 CL        145.6441  140.1975  153.8952 Cl      1  UNL1       -0.0813
     35 C         144.7805  141.1807  156.1397 C.ar    1  UNL1        0.0491
@<TRIPOS>UNITY_ATOM_ATTR
9 1
charge -1
@<TRIPOS>BOND
     1    18    19    1
     2    19    12    1
     3    12    13   ar
     4    13    14   ar
     5    14    15   ar
     6    15    11    1
     7     7    11    1
     8     7     8    1
     9     8     9   ar
    10     8    10   ar
    11     7     1    1
    12     1     2    1
    13     2     3    1
    14     3     4    1
    15     4    20    1
    16    20    21    1
    17    21    22    1
    18    22    23    1
    19    23    24    1
    20    24    27    1
    21    27    28    1
    22    28    29   ar
    23    29    30   ar
    24    30    31   ar
    25    31    32    1
    26    31    33   ar
    27    33    34    1
    28    33    35   ar
    29    24    25    1
    30    25    26    1
    31     4     5    1
    32     5     6    1
    33    15    16   ar
    34    16    17   ar
    35    17    12   ar
    36     6     1    1
    37    26    21    1
    38    35    28   ar
@<TRIPOS>MOLECULE
*****
 35 38 0 0 0
SMALL
GASTEIGER

@<TRIPOS>ATOM
      1 N         139.8231  141.0910  167.1604 N.3     1  UNL1       -0.2691
      2 C         140.0069  142.5628  166.9365 C.3     1  UNL1        0.0724
      3 C         139.4174  143.2160  165.7217 C.3     1  UNL1        0.0188
      4 C         138.6441  142.3975  164.7307 C.3     1  UNL1        0.0188
      5 C         138.4603  140.9257  164.9546 C.3     1  UNL1        0.0188
      6 C         139.0498  140.2725  166.1695 C.3     1  UNL1        0.0724
      7 C         140.4126  140.4378  168.3752 C.3     1  UNL1        0.0987
      8 C         139.6132  140.3489  169.6414 C.2     1  UNL1        0.0652
      9 O         140.1619  140.9175  170.9163 O.co2   1  UNL1       -0.5478
     10 O         138.2649  139.6914  169.6325 O.co2   1  UNL1       -0.5478
     11 C         141.8014  139.8735  168.3240 C.3     1  UNL1        0.0480
     12 C         144.2639  140.2934  164.5810 C.ar    1  UNL1        0.1387
     13 C         143.9315  138.9301  165.1111 C.ar    1  UNL1        0.0366
     14 C         143.1106  138.7902  166.3587 C.ar    1  UNL1       -0.0011
     15 C         142.6222  140.0135  167.0763 C.ar    1  UNL1       -0.0203
     16 C         142.9547  141.3767  166.5462 C.ar    1  UNL1       -0.0011
     17 C         143.7755  141.5167  165.2986 C.ar    1  UNL1        0.0366
     18 C         145.5331  141.7906  162.8789 C.3     1  UNL1        0.2525
     19 O         145.0847  140.4333  163.3333 O.3     1  UNL1       -0.4714
     20 C         138.0546  143.0507  163.5159 C.3     1  UNL1        0.0721
     21 N         138.9502  143.7145  162.5122 N.3     1  UNL1       -0.2724
     22 C         139.5510  142.9119  161.3965 C.3     1  UNL1        0.0758
     23 C         140.4465  143.5757  160.3928 C.3     1  UNL1        0.0609
     24 C         140.7412  145.0421  160.5049 C.3     1  UNL1        0.1687
     25 C         140.1405  145.8448  161.6205 C.3     1  UNL1        0.0609
     26 C         139.2449  145.1809  162.6242 C.3     1  UNL1        0.0758
     27 O         141.6368  145.7060  159.5012 O.3     1  UNL1       -0.4790
     28 C         141.3499  145.5711  158.0351 C.ar    1  UNL1        0.1393
     29 C         142.2708  144.7724  157.1610 C.ar    1  UNL1        0.0378
     30 C         141.9839  144.6375  155.6949 C.ar    1  UNL1        0.0154
     31 C         140.7761  145.3013  155.1029 C.ar    1  UNL1        0.0684
     32 CL        140.4892  145.1664  153.6367 Cl      1  UNL1       -0.0814
     33 C         139.8552  146.1000  155.9769 C.ar    1  UNL1        0.0712
     34 CL        138.6474  146.7638  155.3848 Cl      1  UNL1       -0.0813
     35 C         140.1421  146.2349  157.4430 C.ar    1  UNL1        0.0491
@<TRIPOS>UNITY_ATOM_ATTR
9 1
charge -1
@<TRIPOS>BOND
     1    18    19    1
     2    19    12    1
     3    12    13   ar
     4    13    14   ar
     5    14    15   ar
     6    15    11    1
     7     7    11    1
     8     7     8    1
     9     8     9   ar
    10     8    10   ar
    11     7     1    1
    12     1     2    1
    13     2     3    1
    14     3     4    1
    15     4    20    1
    16    20    21    1
    17    21    22    1
    18    22    23    1
    19    23    24    1
    20    24    27    1
    21    27    28    1
    22    28    29   ar
    23    29    30   ar
    24    30    31   ar
    25    31    32    1
    26    31    33   ar
    27    33    34    1
    28    33    35   ar
    29    24    25    1
    30    25    26    1
    31     4     5    1
    32     5     6    1
    33    15    16   ar
    34    16    17   ar
    35    17    12   ar
    36     6     1    1
    37    26    21    1
    38    35    28   ar
@<TRIPOS>MOLECULE
*****
 35 38 0 0 0
SMALL
GASTEIGER

@<TRIPOS>ATOM
      1 N         142.1090  140.1663  166.6521 N.3     1  UNL1       -0.2691
      2 C         142.3396  141.5562  166.1374 C.3     1  UNL1        0.0724
      3 C         143.3566  141.7986  165.0618 C.3     1  UNL1        0.0188
      4 C         144.1431  140.6511  164.5009 C.3     1  UNL1        0.0188
      5 C         143.9126  139.2611  165.0157 C.3     1  UNL1        0.0188
      6 C         142.8955  139.0188  166.0913 C.3     1  UNL1        0.0724
      7 C         141.0920  139.9239  167.7277 C.3     1  UNL1        0.0987
      8 C         141.5294  139.7834  169.1556 C.2     1  UNL1        0.0652
      9 O         142.9811  139.9102  169.5112 O.co2   1  UNL1       -0.5478
     10 O         140.5151  139.5161  170.2280 O.co2   1  UNL1       -0.5478
     11 C         139.6375  139.8221  167.3755 C.3     1  UNL1        0.0480
     12 C         138.4035  139.0071  163.1254 C.ar    1  UNL1        0.1387
     13 C         138.9173  137.8901  163.9845 C.ar    1  UNL1        0.0366
     14 C         139.3286  138.1617  165.4012 C.ar    1  UNL1       -0.0011
     15 C         139.2262  139.5504  165.9588 C.ar    1  UNL1       -0.0203
     16 C         138.7125  140.6675  165.0996 C.ar    1  UNL1       -0.0011
     17 C         138.3011  140.3959  163.6829 C.ar    1  UNL1        0.0366
     18 C         137.4438  139.8448  160.8611 C.3     1  UNL1        0.2525
     19 O         137.9922  138.7355  161.7087 O.3     1  UNL1       -0.4714
     20 C         145.1601  140.8935  163.4254 C.3     1  UNL1        0.0721
     21 N         144.7222  141.0386  161.9981 N.3     1  UNL1       -0.2724
     22 C         144.2140  139.8455  161.2444 C.3     1  UNL1        0.0758
     23 C         143.7761  139.9907  159.8171 C.3     1  UNL1        0.0609
     24 C         143.8465  141.3290  159.1435 C.3     1  UNL1        0.1687
     25 C         144.3547  142.5222  159.8971 C.3     1  UNL1        0.0609
     26 C         144.7926  142.3770  161.3244 C.3     1  UNL1        0.0758
     27 O         143.4086  141.4742  157.7162 O.3     1  UNL1       -0.4790
     28 C         144.4266  141.4644  156.6146 C.ar    1  UNL1        0.1393
     29 C         144.0148  141.1120  155.2159 C.ar    1  UNL1        0.0378
     30 C         145.0329  141.1022  154.1144 C.ar    1  UNL1        0.0154
     31 C         146.4627  141.4447  154.4115 C.ar    1  UNL1        0.0684
     32 CL        147.4808  141.4348  153.3098 Cl      1  UNL1       -0.0814
     33 C         146.8745  141.7970  155.8101 C.ar    1  UNL1        0.0712
     34 CL        148.3043  142.1395  156.1072 Cl      1  UNL1       -0.0813
     35 C         145.8564  141.8069  156.9117 C.ar    1  UNL1        0.0491
@<TRIPOS>UNITY_ATOM_ATTR
9 1
charge -1
@<TRIPOS>BOND
     1    18    19    1
     2    19    12    1
     3    12    13   ar
     4    13    14   ar
     5    14    15   ar
     6    15    11    1
     7     7    11    1
     8     7     8    1
     9     8     9   ar
    10     8    10   ar
    11     7     1    1
    12     1     2    1
    13     2     3    1
    14     3     4    1
    15     4    20    1
    16    20    21    1
    17    21    22    1
    18    22    23    1
    19    23    24    1
    20    24    27    1
    21    27    28    1
    22    28    29   ar
    23    29    30   ar
    24    30    31   ar
    25    31    32    1
    26    31    33   ar
    27    33    34    1
    28    33    35   ar
    29    24    25    1
    30    25    26    1
    31     4     5    1
    32     5     6    1
    33    15    16   ar
    34    16    17   ar
    35    17    12   ar
    36     6     1    1
    37    26    21    1
    38    35    28   ar
@<TRIPOS>MOLECULE
*****
 35 38 0 0 0
SMALL
GASTEIGER

@<TRIPOS>ATOM
      1 N         141.8291  140.8631  166.7985 N.3     1  UNL1       -0.2691
      2 C         142.7020  142.0088  166.3796 C.3     1  UNL1        0.0724
      3 C         142.1089  143.1734  165.6436 C.3     1  UNL1        0.0188
      4 C         140.6429  143.1924  165.3264 C.3     1  UNL1        0.0188
      5 C         139.7700  142.0467  165.7453 C.3     1  UNL1        0.0188
      6 C         140.3632  140.8820  166.4814 C.3     1  UNL1        0.0724
      7 C         142.4223  139.6984  167.5346 C.3     1  UNL1        0.0987
      8 C         142.2684  139.5948  169.0231 C.2     1  UNL1        0.0652
      9 O         142.9535  138.4910  169.7729 O.co2   1  UNL1       -0.5478
     10 O         141.4293  140.5950  169.7617 O.co2   1  UNL1       -0.5478
     11 C         143.1693  138.6374  166.7822 C.3     1  UNL1        0.0480
     12 C         142.4051  138.0340  162.3888 C.ar    1  UNL1        0.1387
     13 C         141.4335  137.5004  163.3993 C.ar    1  UNL1        0.0366
     14 C         141.6882  137.7015  164.8638 C.ar    1  UNL1       -0.0011
     15 C         142.9146  138.4362  165.3177 C.ar    1  UNL1       -0.0203
     16 C         143.8862  138.9698  164.3072 C.ar    1  UNL1       -0.0011
     17 C         143.6315  138.7687  162.8428 C.ar    1  UNL1        0.0366
     18 C         140.9690  138.4873  160.2717 C.3     1  UNL1        0.2525
     19 O         142.1504  137.8328  160.9243 O.3     1  UNL1       -0.4714
     20 C         140.0498  144.3570  164.5904 C.3     1  UNL1        0.0721
     21 N         140.4289  144.6133  163.1619 N.3     1  UNL1       -0.2724
     22 C         139.6406  145.5897  162.3403 C.3     1  UNL1        0.0758
     23 C         140.0197  145.8460  160.9118 C.3     1  UNL1        0.0609
     24 C         141.1872  145.1258  160.3049 C.3     1  UNL1        0.1687
     25 C         141.9755  144.1494  161.1265 C.3     1  UNL1        0.0609
     26 C         141.5964  143.8931  162.5550 C.3     1  UNL1        0.0758
     27 O         141.5663  145.3821  158.8764 O.3     1  UNL1       -0.4790
     28 C         140.5392  145.2459  157.7918 C.ar    1  UNL1        0.1393
     29 C         139.8586  143.9286  157.5644 C.ar    1  UNL1        0.0378
     30 C         138.8314  143.7925  156.4799 C.ar    1  UNL1        0.0154
     31 C         138.4848  144.9736  155.6226 C.ar    1  UNL1        0.0684
     32 CL        137.4576  144.8374  154.5380 Cl      1  UNL1       -0.0814
     33 C         139.1653  146.2908  155.8500 C.ar    1  UNL1        0.0712
     34 CL        138.8187  147.4719  154.9927 Cl      1  UNL1       -0.0813
     35 C         140.1925  146.4270  156.9346 C.ar    1  UNL1        0.0491
@<TRIPOS>UNITY_ATOM_ATTR
9 1
charge -1
@<TRIPOS>BOND
     1    18    19    1
     2    19    12    1
     3    12    13   ar
     4    13    14   ar
     5    14    15   ar
     6    15    11    1
     7     7    11    1
     8     7     8    1
     9     8     9   ar
    10     8    10   ar
    11     7     1    1
    12     1     2    1
    13     2     3    1
    14     3     4    1
    15     4    20    1
    16    20    21    1
    17    21    22    1
    18    22    23    1
    19    23    24    1
    20    24    27    1
    21    27    28    1
    22    28    29   ar
    23    29    30   ar
    24    30    31   ar
    25    31    32    1
    26    31    33   ar
    27    33    34    1
    28    33    35   ar
    29    24    25    1
    30    25    26    1
    31     4     5    1
    32     5     6    1
    33    15    16   ar
    34    16    17   ar
    35    17    12   ar
    36     6     1    1
    37    26    21    1
    38    35    28   ar
@<TRIPOS>MOLECULE
*****
 35 38 0 0 0
SMALL
GASTEIGER

@<TRIPOS>ATOM
      1 N         140.6579  140.6290  167.2937 N.3     1  UNL1       -0.2691
      2 C         140.6326  142.0738  166.8911 C.3     1  UNL1        0.0724
      3 C         141.7737  142.6548  166.1099 C.3     1  UNL1        0.0188
      4 C         142.9402  141.7910  165.7313 C.3     1  UNL1        0.0188
      5 C         142.9655  140.3463  166.1340 C.3     1  UNL1        0.0188
      6 C         141.8243  139.7653  166.9152 C.3     1  UNL1        0.0724
      7 C         139.5167  140.0481  168.0749 C.3     1  UNL1        0.0987
      8 C         139.4614  140.2222  169.5637 C.2     1  UNL1        0.0652
      9 O         138.2171  139.8542  170.3162 O.co2   1  UNL1       -0.5478
     10 O         140.6505  140.7644  170.3001 O.co2   1  UNL1       -0.5478
     11 C         138.4309  139.2930  167.3673 C.3     1  UNL1        0.0480
     12 C         138.5759  138.8048  162.8962 C.ar    1  UNL1        0.1387
     13 C         138.1116  140.0995  163.4946 C.ar    1  UNL1        0.0366
     14 C         138.0632  140.2622  164.9850 C.ar    1  UNL1       -0.0011
     15 C         138.4792  139.1303  165.8769 C.ar    1  UNL1       -0.0203
     16 C         138.9435  137.8356  165.2785 C.ar    1  UNL1       -0.0011
     17 C         138.9919  137.6729  163.7881 C.ar    1  UNL1        0.0366
     18 C         138.6477  139.8520  160.5196 C.3     1  UNL1        0.2525
     19 O         138.6242  138.6421  161.4058 O.3     1  UNL1       -0.4714
     20 C         144.0813  142.3720  164.9502 C.3     1  UNL1        0.0721
     21 N         143.9435  142.5928  163.4729 N.3     1  UNL1       -0.2724
     22 C         144.9193  141.9598  162.5257 C.3     1  UNL1        0.0758
     23 C         144.7815  142.1806  161.0485 C.3     1  UNL1        0.0609
     24 C         143.6679  143.0344  160.5184 C.3     1  UNL1        0.1687
     25 C         142.6922  143.6674  161.4656 C.3     1  UNL1        0.0609
     26 C         142.8300  143.4466  162.9428 C.3     1  UNL1        0.0758
     27 O         143.5301  143.2552  159.0412 O.3     1  UNL1       -0.4790
     28 C         143.9232  142.1719  158.0810 C.ar    1  UNL1        0.1393
     29 C         145.2184  142.2686  157.3305 C.ar    1  UNL1        0.0378
     30 C         145.6115  141.1853  156.3703 C.ar    1  UNL1        0.0154
     31 C         144.7095  140.0052  156.1607 C.ar    1  UNL1        0.0684
     32 CL        145.1027  138.9219  155.2005 Cl      1  UNL1       -0.0814
     33 C         143.4144  139.9085  156.9112 C.ar    1  UNL1        0.0712
     34 CL        142.5124  138.7285  156.7016 Cl      1  UNL1       -0.0813
     35 C         143.0212  140.9918  157.8714 C.ar    1  UNL1        0.0491
@<TRIPOS>UNITY_ATOM_ATTR
9 1
charge -1
@<TRIPOS>BOND
     1    18    19    1
     2    19    12    1
     3    12    13   ar
     4    13    14   ar
     5    14    15   ar
     6    15    11    1
     7     7    11    1
     8     7     8    1
     9     8     9   ar
    10     8    10   ar
    11     7     1    1
    12     1     2    1
    13     2     3    1
    14     3     4    1
    15     4    20    1
    16    20    21    1
    17    21    22    1
    18    22    23    1
    19    23    24    1
    20    24    27    1
    21    27    28    1
    22    28    29   ar
    23    29    30   ar
    24    30    31   ar
    25    31    32    1
    26    31    33   ar
    27    33    34    1
    28    33    35   ar
    29    24    25    1
    30    25    26    1
    31     4     5    1
    32     5     6    1
    33    15    16   ar
    34    16    17   ar
    35    17    12   ar
    36     6     1    1
    37    26    21    1
    38    35    28   ar
@<TRIPOS>MOLECULE
*****
 35 38 0 0 0
SMALL
GASTEIGER

@<TRIPOS>ATOM
      1 N         140.2545  139.9222  167.0398 N.3     1  UNL1       -0.2691
      2 C         141.5451  139.3665  166.5147 C.3     1  UNL1        0.0724
      3 C         141.5377  138.4380  165.3367 C.3     1  UNL1        0.0188
      4 C         140.2397  138.0651  164.6837 C.3     1  UNL1        0.0188
      5 C         138.9492  138.6208  165.2088 C.3     1  UNL1        0.0188
      6 C         138.9566  139.5494  166.3868 C.3     1  UNL1        0.0724
      7 C         140.2619  140.8508  168.2178 C.3     1  UNL1        0.0987
      8 C         139.8717  140.3441  169.5746 C.2     1  UNL1        0.0652
      9 O         140.7318  139.3336  170.2738 O.co2   1  UNL1       -0.5478
     10 O         138.6211  140.8479  170.2322 O.co2   1  UNL1       -0.5478
     11 C         140.6596  142.2860  168.0390 C.3     1  UNL1        0.0480
     12 C         140.8499  144.0708  163.9125 C.ar    1  UNL1        0.1387
     13 C         139.5992  144.2030  164.7299 C.ar    1  UNL1        0.0366
     14 C         139.5357  143.6080  166.1054 C.ar    1  UNL1       -0.0011
     15 C         140.7231  142.8809  166.6635 C.ar    1  UNL1       -0.0203
     16 C         141.9738  142.7488  165.8462 C.ar    1  UNL1       -0.0011
     17 C         142.0372  143.3438  164.4707 C.ar    1  UNL1        0.0366
     18 C         139.7004  145.3220  161.9471 C.3     1  UNL1        0.2525
     19 O         140.9133  144.6658  162.5370 O.3     1  UNL1       -0.4714
     20 C         140.2324  137.1366  163.5057 C.3     1  UNL1        0.0721
     21 N         140.4877  137.6712  162.1277 N.3     1  UNL1       -0.2724
     22 C         139.3364  138.0698  161.2526 C.3     1  UNL1        0.0758
     23 C         139.5917  138.6045  159.8746 C.3     1  UNL1        0.0609
     24 C         140.9982  138.7405  159.3716 C.3     1  UNL1        0.1687
     25 C         142.1495  138.3420  160.2466 C.3     1  UNL1        0.0609
     26 C         141.8942  137.8073  161.6246 C.3     1  UNL1        0.0758
     27 O         141.2535  139.2752  157.9936 O.3     1  UNL1       -0.4790
     28 C         141.4598  138.3288  156.8482 C.ar    1  UNL1        0.1393
     29 C         140.3654  138.1162  155.8446 C.ar    1  UNL1        0.0378
     30 C         140.5716  137.1699  154.6992 C.ar    1  UNL1        0.0154
     31 C         141.8722  136.4361  154.5574 C.ar    1  UNL1        0.0684
     32 CL        142.0783  135.4897  153.4120 Cl      1  UNL1       -0.0814
     33 C         142.9665  136.6487  155.5610 C.ar    1  UNL1        0.0712
     34 CL        144.2671  135.9149  155.4192 Cl      1  UNL1       -0.0813
     35 C         142.7603  137.5951  156.7064 C.ar    1  UNL1        0.0491
@<TRIPOS>UNITY_ATOM_ATTR
9 1
charge -1
@<TRIPOS>BOND
     1    18    19    1
     2    19    12    1
     3    12    13   ar
     4    13    14   ar
     5    14    15   ar
     6    15    11    1
     7     7    11    1
     8     7     8    1
     9     8     9   ar
    10     8    10   ar
    11     7     1    1
    12     1     2    1
    13     2     3    1
    14     3     4    1
    15     4    20    1
    16    20    21    1
    17    21    22    1
    18    22    23    1
    19    23    24    1
    20    24    27    1
    21    27    28    1
    22    28    29   ar
    23    29    30   ar
    24    30    31   ar
    25    31    32    1
    26    31    33   ar
    27    33    34    1
    28    33    35   ar
    29    24    25    1
    30    25    26    1
    31     4     5    1
    32     5     6    1
    33    15    16   ar
    34    16    17   ar
    35    17    12   ar
    36     6     1    1
    37    26    21    1
    38    35    28   ar
@<TRIPOS>MOLECULE
*****
 35 38 0 0 0
SMALL
GASTEIGER

@<TRIPOS>ATOM
      1 N         141.5870  140.0327  166.7391 N.3     1  UNL1       -0.2691
      2 C         142.4858  138.8577  166.4908 C.3     1  UNL1        0.0724
      3 C         143.6111  138.9694  165.5053 C.3     1  UNL1        0.0188
      4 C         143.8376  140.2560  164.7681 C.3     1  UNL1        0.0188
      5 C         142.9388  141.4309  165.0164 C.3     1  UNL1        0.0188
      6 C         141.8134  141.3192  166.0020 C.3     1  UNL1        0.0724
      7 C         140.4617  139.9210  167.7247 C.3     1  UNL1        0.0987
      8 C         140.7065  140.2023  169.1776 C.2     1  UNL1        0.0652
      9 O         141.8937  141.0193  169.5937 O.co2   1  UNL1       -0.5478
     10 O         139.7641  139.6666  170.2145 O.co2   1  UNL1       -0.5478
     11 C         139.0916  139.5280  167.2574 C.3     1  UNL1        0.0480
     12 C         138.3087  138.8835  162.8731 C.ar    1  UNL1        0.1387
     13 C         137.9820  140.2029  163.5073 C.ar    1  UNL1        0.0366
     14 C         138.2430  140.4178  164.9687 C.ar    1  UNL1       -0.0011
     15 C         138.8306  139.3131  165.7959 C.ar    1  UNL1       -0.0203
     16 C         139.1573  137.9937  165.1618 C.ar    1  UNL1       -0.0011
     17 C         138.8963  137.7788  163.7003 C.ar    1  UNL1        0.0366
     18 C         137.7746  139.8421  160.5182 C.3     1  UNL1        0.2525
     19 O         138.0477  138.6687  161.4117 O.3     1  UNL1       -0.4714
     20 C         144.9629  140.3676  163.7826 C.3     1  UNL1        0.0721
     21 N         144.6916  140.8394  162.3848 N.3     1  UNL1       -0.2724
     22 C         145.1187  142.2133  161.9608 C.3     1  UNL1        0.0758
     23 C         144.8474  142.6851  160.5629 C.3     1  UNL1        0.0609
     24 C         144.1492  141.7828  159.5891 C.3     1  UNL1        0.1687
     25 C         143.7221  140.4089  160.0131 C.3     1  UNL1        0.0609
     26 C         143.9934  139.9371  161.4110 C.3     1  UNL1        0.0758
     27 O         143.8779  142.2546  158.1913 O.3     1  UNL1       -0.4790
     28 C         142.8723  143.3406  157.9481 C.ar    1  UNL1        0.1393
     29 C         142.0261  143.8461  159.0789 C.ar    1  UNL1        0.0378
     30 C         141.0204  144.9321  158.8357 C.ar    1  UNL1        0.0154
     31 C         140.8609  145.5127  157.4618 C.ar    1  UNL1        0.0684
     32 CL        139.8552  146.5988  157.2187 Cl      1  UNL1       -0.0814
     33 C         141.7070  145.0072  156.3311 C.ar    1  UNL1        0.0712
     34 CL        141.5475  145.5877  154.9572 Cl      1  UNL1       -0.0813
     35 C         142.7128  143.9211  156.5743 C.ar    1  UNL1        0.0491
@<TRIPOS>UNITY_ATOM_ATTR
9 1
charge -1
@<TRIPOS>BOND
     1    18    19    1
     2    19    12    1
     3    12    13   ar
     4    13    14   ar
     5    14    15   ar
     6    15    11    1
     7     7    11    1
     8     7     8    1
     9     8     9   ar
    10     8    10   ar
    11     7     1    1
    12     1     2    1
    13     2     3    1
    14     3     4    1
    15     4    20    1
    16    20    21    1
    17    21    22    1
    18    22    23    1
    19    23    24    1
    20    24    27    1
    21    27    28    1
    22    28    29   ar
    23    29    30   ar
    24    30    31   ar
    25    31    32    1
    26    31    33   ar
    27    33    34    1
    28    33    35   ar
    29    24    25    1
    30    25    26    1
    31     4     5    1
    32     5     6    1
    33    15    16   ar
    34    16    17   ar
    35    17    12   ar
    36     6     1    1
    37    26    21    1
    38    35    28   ar
