@<TRIPOS>MOLECULE
*****
 38 41 0 0 0
SMALL
GASTEIGER

@<TRIPOS>ATOM
      1 C         139.9319  141.2547  164.3337 C.2     1  UNL1        0.2894
      2 O         140.5637  140.5022  163.2003 O.2     1  UNL1       -0.2688
      3 N         139.6786  142.7277  164.2071 N.am    1  UNL1       -0.1703
      4 N         139.0578  143.6084  165.2506 N.2     1  UNL1       -0.1783
      5 C         138.9971  145.0037  164.7033 C.2     1  UNL1        0.0938
      6 C         139.5804  144.9852  163.3215 C.3     1  UNL1        0.0799
      7 C         140.0016  143.5786  163.0148 C.3     1  UNL1        0.1809
      8 C         140.6346  143.1059  161.7398 C.2     1  UNL1        0.2432
      9 O         139.8198  143.0247  160.4830 O.2     1  UNL1       -0.2732
     10 N         142.0825  142.7144  161.7214 N.am    1  UNL1       -0.2990
     11 H         142.6174  142.7677  162.5463 H       1  UNL1        0.1498
     12 C         142.7156  142.2417  160.4464 C.3     1  UNL1        0.1179
     13 C         142.7307  140.7790  160.1138 C.ar    1  UNL1        0.0161
     14 C         141.8950  140.2585  158.9822 C.ar    1  UNL1        0.0103
     15 C         141.9102  138.7959  158.6497 C.ar    1  UNL1        0.0575
     16 CL        141.0744  138.2753  157.5181 Cl      1  UNL1       -0.0823
     17 C         142.7611  137.8539  159.4488 C.ar    1  UNL1        0.0129
     18 C         143.5968  138.3744  160.5804 C.ar    1  UNL1        0.0199
     19 C         143.5816  139.8370  160.9129 C.ar    1  UNL1        0.0839
     20 N         144.4174  140.3576  162.0445 N.ar    1  UNL1       -0.1889
     21 C         144.5003  139.7702  163.4222 C.ar    1  UNL1        0.2258
     22 N         145.4511  140.6066  164.2263 N.ar    1  UNL1       -0.1045
     23 N         145.9558  141.7109  163.3454 N.ar    1  UNL1       -0.0222
     24 N         145.3169  141.5570  161.9971 N.ar    1  UNL1       -0.0385
     25 C         139.5535  140.5340  165.5937 C.3     1  UNL1        0.2681
     26 C         140.5130  140.4827  166.7454 C.ar    1  UNL1        0.0265
     27 C         141.7154  139.5883  166.6805 C.ar    1  UNL1        0.0020
     28 C         142.6751  139.5369  167.8322 C.ar    1  UNL1        0.0294
     29 C         142.4323  140.3800  169.0489 C.ar    1  UNL1        0.1401
     30 F         143.3918  140.3287  170.2006 F       1  UNL1       -0.2042
     31 C         141.2299  141.2744  169.1138 C.ar    1  UNL1        0.0294
     32 C         140.2703  141.3258  167.9621 C.ar    1  UNL1        0.0020
     33 O         138.2154  139.8648  165.7018 O.3     1  UNL1       -0.4381
     34 C         138.1022  138.5139  166.3439 C.2     1  UNL1        0.3176
     35 O         137.4440  138.3736  167.6845 O.2     1  UNL1       -0.2501
     36 C         138.6472  137.3034  165.6455 C.3     1  UNL1        0.1096
     37 C         140.7483  137.1410  164.1260 C.3     1  UNL1        0.0006
     38 C         139.2885  137.4411  164.2966 C.3     1  UNL1        0.0117
@<TRIPOS>BOND
     1    37    38    1
     2    38    36    1
     3    36    34    1
     4    34    35    2
     5    34    33    1
     6    25    33    1
     7    25     1    1
     8     1     2    2
     9     1     3   am
    10     3     4    1
    11     4     5    2
    12     5     6    1
    13     6     7    1
    14     7     8    1
    15     8     9    2
    16     8    10   am
    17    10    12    1
    18    12    13    1
    19    13    14   ar
    20    14    15   ar
    21    15    16    1
    22    15    17   ar
    23    17    18   ar
    24    18    19   ar
    25    19    20    1
    26    20    21   ar
    27    21    22   ar
    28    22    23   ar
    29    23    24   ar
    30    25    26    1
    31    26    27   ar
    32    27    28   ar
    33    28    29   ar
    34    29    30    1
    35    29    31   ar
    36    31    32   ar
    37     7     3    1
    38    19    13   ar
    39    24    20   ar
    40    32    26   ar
    41    10    11    1
@<TRIPOS>MOLECULE
*****
 38 41 0 0 0
SMALL
GASTEIGER

@<TRIPOS>ATOM
      1 C         140.9732  140.8022  164.7615 C.2     1  UNL1        0.2894
      2 O         140.9685  141.6310  163.5113 O.2     1  UNL1       -0.2688
      3 N         142.1704  139.9651  165.1019 N.am    1  UNL1       -0.1703
      4 N         142.3192  139.0898  166.3110 N.2     1  UNL1       -0.1783
      5 C         143.6698  138.4400  166.2494 C.2     1  UNL1        0.0938
      6 C         144.3556  138.9137  165.0023 C.3     1  UNL1        0.0799
      7 C         143.4289  139.8562  164.2931 C.3     1  UNL1        0.1809
      8 C         143.7112  140.5654  163.0019 C.2     1  UNL1        0.2432
      9 O         144.0065  139.7755  161.7614 O.2     1  UNL1       -0.2732
     10 N         143.6983  142.0646  162.9511 N.am    1  UNL1       -0.2990
     11 H         143.5045  142.5830  163.7653 H       1  UNL1        0.1498
     12 C         143.9806  142.7737  161.6599 C.3     1  UNL1        0.1179
     13 C         142.8765  143.4909  160.9411 C.ar    1  UNL1        0.0161
     14 C         142.0049  144.4608  161.6825 C.ar    1  UNL1        0.0103
     15 C         140.9009  145.1780  160.9637 C.ar    1  UNL1        0.0575
     16 CL        140.0292  146.1479  161.7050 Cl      1  UNL1       -0.0823
     17 C         140.6683  144.9252  159.5035 C.ar    1  UNL1        0.0129
     18 C         141.5399  143.9553  158.7622 C.ar    1  UNL1        0.0199
     19 C         142.6439  143.2381  159.4810 C.ar    1  UNL1        0.0839
     20 N         143.5155  142.2682  158.7396 N.ar    1  UNL1       -0.1889
     21 C         144.7553  142.6091  157.9671 C.ar    1  UNL1        0.2258
     22 N         145.3063  141.3386  157.3907 N.ar    1  UNL1       -0.1045
     23 N         144.4071  140.2125  157.8069 N.ar    1  UNL1       -0.0222
     24 N         143.3003  140.7870  158.6406 N.ar    1  UNL1       -0.0385
     25 C         139.7805  140.8106  165.6713 C.3     1  UNL1        0.2681
     26 C         139.9431  141.1735  167.1176 C.ar    1  UNL1        0.0265
     27 C         140.5575  142.4884  167.4964 C.ar    1  UNL1        0.0020
     28 C         140.7201  142.8513  168.9427 C.ar    1  UNL1        0.0294
     29 C         140.2682  141.8994  170.0102 C.ar    1  UNL1        0.1401
     30 F         140.4308  142.2623  171.4565 F       1  UNL1       -0.2042
     31 C         139.6538  140.5845  169.6314 C.ar    1  UNL1        0.0294
     32 C         139.4912  140.2215  168.1851 C.ar    1  UNL1        0.0020
     33 O         138.4254  140.4561  165.1346 O.3     1  UNL1       -0.4381
     34 C         137.7820  141.3211  164.0916 C.2     1  UNL1        0.3176
     35 O         137.4852  140.7613  162.7320 O.2     1  UNL1       -0.2501
     36 C         137.4354  142.7457  164.4082 C.3     1  UNL1        0.1096
     37 C         138.8501  144.7959  165.1466 C.3     1  UNL1        0.0006
     38 C         138.4019  143.8441  164.0774 C.3     1  UNL1        0.0117
@<TRIPOS>BOND
     1    37    38    1
     2    38    36    1
     3    36    34    1
     4    34    35    2
     5    34    33    1
     6    25    33    1
     7    25     1    1
     8     1     2    2
     9     1     3   am
    10     3     4    1
    11     4     5    2
    12     5     6    1
    13     6     7    1
    14     7     8    1
    15     8     9    2
    16     8    10   am
    17    10    12    1
    18    12    13    1
    19    13    14   ar
    20    14    15   ar
    21    15    16    1
    22    15    17   ar
    23    17    18   ar
    24    18    19   ar
    25    19    20    1
    26    20    21   ar
    27    21    22   ar
    28    22    23   ar
    29    23    24   ar
    30    25    26    1
    31    26    27   ar
    32    27    28   ar
    33    28    29   ar
    34    29    30    1
    35    29    31   ar
    36    31    32   ar
    37     7     3    1
    38    19    13   ar
    39    24    20   ar
    40    32    26   ar
    41    10    11    1
@<TRIPOS>MOLECULE
*****
 38 41 0 0 0
SMALL
GASTEIGER

@<TRIPOS>ATOM
      1 C         141.1377  142.3811  163.8857 C.2     1  UNL1        0.2894
      2 O         141.0998  141.5089  162.6660 O.2     1  UNL1       -0.2688
      3 N         139.9541  143.2337  164.2352 N.am    1  UNL1       -0.1703
      4 N         139.8467  144.1514  165.4168 N.2     1  UNL1       -0.1783
      5 C         138.4963  144.8031  165.3764 C.2     1  UNL1        0.0938
      6 C         137.7690  144.2881  164.1698 C.3     1  UNL1        0.0799
      7 C         138.6700  143.3181  163.4645 C.3     1  UNL1        0.1809
      8 C         138.3442  142.5649  162.2090 C.2     1  UNL1        0.2432
      9 O         138.2269  143.2962  160.9046 O.2     1  UNL1       -0.2732
     10 N         138.1355  141.0802  162.2578 N.am    1  UNL1       -0.2990
     11 H         138.2125  140.6002  163.1139 H       1  UNL1        0.1498
     12 C         137.8097  140.3270  161.0023 C.3     1  UNL1        0.1179
     13 C         138.9068  139.9306  160.0592 C.ar    1  UNL1        0.0161
     14 C         138.9803  140.5457  158.6931 C.ar    1  UNL1        0.0103
     15 C         140.0774  140.1494  157.7502 C.ar    1  UNL1        0.0575
     16 CL        140.1508  140.7645  156.3840 Cl      1  UNL1       -0.0823
     17 C         141.1010  139.1379  158.1733 C.ar    1  UNL1        0.0129
     18 C         141.0276  138.5228  159.5394 C.ar    1  UNL1        0.0199
     19 C         139.9305  138.9192  160.4824 C.ar    1  UNL1        0.0839
     20 N         139.8571  138.3041  161.8485 N.ar    1  UNL1       -0.1889
     21 C         141.0228  137.9977  162.7414 C.ar    1  UNL1        0.2258
     22 N         140.4911  137.3917  164.0063 N.ar    1  UNL1       -0.1045
     23 N         138.9967  137.3234  163.8952 N.ar    1  UNL1       -0.0222
     24 N         138.6049  137.8873  162.5616 N.ar    1  UNL1       -0.0385
     25 C         142.3594  142.4008  164.7559 C.3     1  UNL1        0.2681
     26 C         142.4553  141.4787  165.9351 C.ar    1  UNL1        0.0265
     27 C         142.4045  139.9934  165.7316 C.ar    1  UNL1        0.0020
     28 C         142.5003  139.0713  166.9108 C.ar    1  UNL1        0.0294
     29 C         142.6470  139.6343  168.2933 C.ar    1  UNL1        0.1401
     30 F         142.7428  138.7122  169.4725 F       1  UNL1       -0.2042
     31 C         142.6977  141.1196  168.4967 C.ar    1  UNL1        0.0294
     32 C         142.6019  142.0418  167.3176 C.ar    1  UNL1        0.0020
     33 O         143.4852  143.3427  164.4468 O.3     1  UNL1       -0.4381
     34 C         144.5168  142.9684  163.4242 C.2     1  UNL1        0.3176
     35 O         144.4976  143.6118  162.0693 O.2     1  UNL1       -0.2501
     36 C         145.5676  141.9509  163.7565 C.3     1  UNL1        0.1096
     37 C         144.3535  139.9995  162.5449 C.3     1  UNL1        0.0006
     38 C         145.2596  140.4878  163.6360 C.3     1  UNL1        0.0117
@<TRIPOS>BOND
     1    37    38    1
     2    38    36    1
     3    36    34    1
     4    34    35    2
     5    34    33    1
     6    25    33    1
     7    25     1    1
     8     1     2    2
     9     1     3   am
    10     3     4    1
    11     4     5    2
    12     5     6    1
    13     6     7    1
    14     7     8    1
    15     8     9    2
    16     8    10   am
    17    10    12    1
    18    12    13    1
    19    13    14   ar
    20    14    15   ar
    21    15    16    1
    22    15    17   ar
    23    17    18   ar
    24    18    19   ar
    25    19    20    1
    26    20    21   ar
    27    21    22   ar
    28    22    23   ar
    29    23    24   ar
    30    25    26    1
    31    26    27   ar
    32    27    28   ar
    33    28    29   ar
    34    29    30    1
    35    29    31   ar
    36    31    32   ar
    37     7     3    1
    38    19    13   ar
    39    24    20   ar
    40    32    26   ar
    41    10    11    1
@<TRIPOS>MOLECULE
*****
 38 41 0 0 0
SMALL
GASTEIGER

@<TRIPOS>ATOM
      1 C         141.0299  140.7692  164.7694 C.2     1  UNL1        0.2894
      2 O         140.9757  141.6356  163.5461 O.2     1  UNL1       -0.2688
      3 N         142.2735  139.9913  165.0830 N.am    1  UNL1       -0.1703
      4 N         142.4742  139.0881  166.2636 N.2     1  UNL1       -0.1783
      5 C         143.8595  138.5186  166.1814 C.2     1  UNL1        0.0938
      6 C         144.5148  139.0698  164.9499 C.3     1  UNL1        0.0799
      7 C         143.5347  139.9800  164.2711 C.3     1  UNL1        0.1809
      8 C         143.7737  140.7446  163.0030 C.2     1  UNL1        0.2432
      9 O         144.1149  140.0128  161.7389 O.2     1  UNL1       -0.2732
     10 N         143.6715  142.2412  162.9989 N.am    1  UNL1       -0.2990
     11 H         143.4475  142.7216  163.8286 H       1  UNL1        0.1498
     12 C         143.9106  143.0058  161.7308 C.3     1  UNL1        0.1179
     13 C         142.7605  143.6513  161.0160 C.ar    1  UNL1        0.0161
     14 C         141.8671  144.6103  161.7454 C.ar    1  UNL1        0.0103
     15 C         140.7171  145.2557  161.0306 C.ar    1  UNL1        0.0575
     16 CL        139.8237  146.2148  161.7601 Cl      1  UNL1       -0.0823
     17 C         140.4605  144.9420  159.5864 C.ar    1  UNL1        0.0129
     18 C         141.3539  143.9830  158.8570 C.ar    1  UNL1        0.0199
     19 C         142.5038  143.3376  159.5718 C.ar    1  UNL1        0.0839
     20 N         143.3973  142.3785  158.8424 N.ar    1  UNL1       -0.1889
     21 C         143.1533  140.9095  158.6619 C.ar    1  UNL1        0.2258
     22 N         144.2968  140.3432  157.8733 N.ar    1  UNL1       -0.1045
     23 N         145.2475  141.4622  157.5665 N.ar    1  UNL1       -0.0222
     24 N         144.6915  142.7200  158.1654 N.ar    1  UNL1       -0.0385
     25 C         139.8404  140.6808  165.6790 C.3     1  UNL1        0.2681
     26 C         139.9501  141.1377  167.1035 C.ar    1  UNL1        0.0265
     27 C         140.4794  142.5066  167.4134 C.ar    1  UNL1        0.0020
     28 C         140.5891  142.9635  168.8379 C.ar    1  UNL1        0.0294
     29 C         140.1694  142.0516  169.9525 C.ar    1  UNL1        0.1401
     30 F         140.2791  142.5085  171.3769 F       1  UNL1       -0.2042
     31 C         139.6401  140.6828  169.6426 C.ar    1  UNL1        0.0294
     32 C         139.5304  140.2258  168.2181 C.ar    1  UNL1        0.0020
     33 O         138.5414  140.1356  165.1641 O.3     1  UNL1       -0.4381
     34 C         138.5374  138.9519  164.2427 C.2     1  UNL1        0.3176
     35 O         138.1475  139.1225  162.8044 O.2     1  UNL1       -0.2501
     36 C         138.9234  137.5978  164.7597 C.3     1  UNL1        0.1096
     37 C         141.0162  137.2025  163.2717 C.3     1  UNL1        0.0006
     38 C         140.3331  137.1093  164.6038 C.3     1  UNL1        0.0117
@<TRIPOS>BOND
     1    37    38    1
     2    38    36    1
     3    36    34    1
     4    34    35    2
     5    34    33    1
     6    25    33    1
     7    25     1    1
     8     1     2    2
     9     1     3   am
    10     3     4    1
    11     4     5    2
    12     5     6    1
    13     6     7    1
    14     7     8    1
    15     8     9    2
    16     8    10   am
    17    10    12    1
    18    12    13    1
    19    13    14   ar
    20    14    15   ar
    21    15    16    1
    22    15    17   ar
    23    17    18   ar
    24    18    19   ar
    25    19    20    1
    26    20    21   ar
    27    21    22   ar
    28    22    23   ar
    29    23    24   ar
    30    25    26    1
    31    26    27   ar
    32    27    28   ar
    33    28    29   ar
    34    29    30    1
    35    29    31   ar
    36    31    32   ar
    37     7     3    1
    38    19    13   ar
    39    24    20   ar
    40    32    26   ar
    41    10    11    1
@<TRIPOS>MOLECULE
*****
 38 41 0 0 0
SMALL
GASTEIGER

@<TRIPOS>ATOM
      1 C         141.7943  140.5292  164.6790 C.2     1  UNL1        0.2894
      2 O         141.1452  141.8001  164.2169 O.2     1  UNL1       -0.2688
      3 N         141.2365  139.2039  164.2520 N.am    1  UNL1       -0.1703
      4 N         141.7755  137.8567  164.6322 N.2     1  UNL1       -0.1783
      5 C         140.9139  136.8132  163.9850 C.2     1  UNL1        0.0938
      6 C         139.8425  137.5155  163.2048 C.3     1  UNL1        0.0799
      7 C         140.0418  138.9930  163.3698 C.3     1  UNL1        0.1809
      8 C         139.1952  140.0705  162.7598 C.2     1  UNL1        0.2432
      9 O         137.8601  140.4036  163.3569 O.2     1  UNL1       -0.2732
     10 N         139.6836  140.8149  161.5525 N.am    1  UNL1       -0.2990
     11 H         140.5598  140.5963  161.1606 H       1  UNL1        0.1498
     12 C         138.8369  141.8924  160.9425 C.3     1  UNL1        0.1179
     13 C         139.4834  143.1115  160.3543 C.ar    1  UNL1        0.0161
     14 C         139.9945  143.0831  158.9444 C.ar    1  UNL1        0.0103
     15 C         140.6409  144.3022  158.3564 C.ar    1  UNL1        0.0575
     16 CL        141.1521  144.2738  156.9464 Cl      1  UNL1       -0.0823
     17 C         140.7763  145.5497  159.1782 C.ar    1  UNL1        0.0129
     18 C         140.2652  145.5781  160.5881 C.ar    1  UNL1        0.0199
     19 C         139.6187  144.3590  161.1762 C.ar    1  UNL1        0.0839
     20 N         139.1076  144.3874  162.5862 N.ar    1  UNL1       -0.1889
     21 C         139.8585  144.8827  163.7865 C.ar    1  UNL1        0.2258
     22 N         138.9708  144.7268  164.9855 N.ar    1  UNL1       -0.1045
     23 N         137.6712  144.1351  164.5262 N.ar    1  UNL1       -0.0222
     24 N         137.7557  143.9253  163.0434 N.ar    1  UNL1       -0.0385
     25 C         143.0011  140.5838  165.5682 C.3     1  UNL1        0.2681
     26 C         142.8336  140.7252  167.0521 C.ar    1  UNL1        0.0265
     27 C         142.5769  139.5125  167.8967 C.ar    1  UNL1        0.0020
     28 C         142.4094  139.6538  169.3806 C.ar    1  UNL1        0.0294
     29 C         142.4986  141.0078  170.0199 C.ar    1  UNL1        0.1401
     30 F         142.3311  141.1492  171.5037 F       1  UNL1       -0.2042
     31 C         142.7553  142.2205  169.1752 C.ar    1  UNL1        0.0294
     32 C         142.9228  142.0792  167.6913 C.ar    1  UNL1        0.0020
     33 O         144.3754  140.4969  164.9734 O.3     1  UNL1       -0.4381
     34 C         144.9038  141.6252  164.1381 C.2     1  UNL1        0.3176
     35 O         145.7497  141.3345  162.9340 O.2     1  UNL1       -0.2501
     36 C         144.5862  143.0440  164.5068 C.3     1  UNL1        0.1096
     37 C         143.5018  145.3228  163.8894 C.3     1  UNL1        0.0006
     38 C         144.0253  143.9791  163.4767 C.3     1  UNL1        0.0117
@<TRIPOS>BOND
     1    37    38    1
     2    38    36    1
     3    36    34    1
     4    34    35    2
     5    34    33    1
     6    25    33    1
     7    25     1    1
     8     1     2    2
     9     1     3   am
    10     3     4    1
    11     4     5    2
    12     5     6    1
    13     6     7    1
    14     7     8    1
    15     8     9    2
    16     8    10   am
    17    10    12    1
    18    12    13    1
    19    13    14   ar
    20    14    15   ar
    21    15    16    1
    22    15    17   ar
    23    17    18   ar
    24    18    19   ar
    25    19    20    1
    26    20    21   ar
    27    21    22   ar
    28    22    23   ar
    29    23    24   ar
    30    25    26    1
    31    26    27   ar
    32    27    28   ar
    33    28    29   ar
    34    29    30    1
    35    29    31   ar
    36    31    32   ar
    37     7     3    1
    38    19    13   ar
    39    24    20   ar
    40    32    26   ar
    41    10    11    1
@<TRIPOS>MOLECULE
*****
 38 41 0 0 0
SMALL
GASTEIGER

@<TRIPOS>ATOM
      1 C         141.8183  141.1300  164.7040 C.2     1  UNL1        0.2894
      2 O         140.6784  141.9882  164.2412 O.2     1  UNL1       -0.2688
      3 N         143.2073  141.3940  164.2033 N.am    1  UNL1       -0.1703
      4 N         144.4398  140.6241  164.5752 N.2     1  UNL1       -0.1783
      5 C         145.6021  141.2285  163.8446 C.2     1  UNL1        0.0938
      6 C         145.0879  142.3720  163.0211 C.3     1  UNL1        0.0799
      7 C         143.6079  142.4742  163.2428 C.3     1  UNL1        0.1809
      8 C         142.6896  143.4801  162.6144 C.2     1  UNL1        0.2432
      9 O         142.7696  144.9229  163.0168 O.2     1  UNL1       -0.2732
     10 N         141.6914  143.0432  161.5834 N.am    1  UNL1       -0.2990
     11 H         141.6389  142.0963  161.3193 H       1  UNL1        0.1498
     12 C         140.7732  144.0491  160.9550 C.3     1  UNL1        0.1179
     13 C         140.1642  143.7727  159.6123 C.ar    1  UNL1        0.0161
     14 C         140.7595  144.3839  158.3786 C.ar    1  UNL1        0.0103
     15 C         140.1506  144.1075  157.0360 C.ar    1  UNL1        0.0575
     16 CL        140.7459  144.7187  155.8022 Cl      1  UNL1       -0.0823
     17 C         138.9462  143.2200  156.9270 C.ar    1  UNL1        0.0129
     18 C         138.3509  142.6088  158.1607 C.ar    1  UNL1        0.0199
     19 C         138.9599  142.8852  159.5033 C.ar    1  UNL1        0.0839
     20 N         138.3645  142.2740  160.7371 N.ar    1  UNL1       -0.1889
     21 C         138.3817  140.8177  161.0959 C.ar    1  UNL1        0.2258
     22 N         137.6753  140.6555  162.4092 N.ar    1  UNL1       -0.1045
     23 N         137.2215  142.0117  162.8620 N.ar    1  UNL1       -0.0222
     24 N         137.6475  143.0119  161.8286 N.ar    1  UNL1       -0.0385
     25 C         141.5689  140.0077  165.6676 C.3     1  UNL1        0.2681
     26 C         141.5559  140.2752  167.1434 C.ar    1  UNL1        0.0265
     27 C         142.5292  139.5712  168.0418 C.ar    1  UNL1        0.0020
     28 C         142.5163  139.8387  169.5177 C.ar    1  UNL1        0.0294
     29 C         141.5301  140.8102  170.0952 C.ar    1  UNL1        0.1401
     30 F         141.5171  141.0778  171.5710 F       1  UNL1       -0.2042
     31 C         140.5568  141.5143  169.1968 C.ar    1  UNL1        0.0294
     32 C         140.5697  141.2468  167.7209 C.ar    1  UNL1        0.0020
     33 O         141.3326  138.6179  165.1551 O.3     1  UNL1       -0.4381
     34 C         140.2160  138.3546  164.1887 C.2     1  UNL1        0.3176
     35 O         140.4808  138.3774  162.7125 O.2     1  UNL1       -0.2501
     36 C         138.8346  138.0686  164.6986 C.3     1  UNL1        0.1096
     37 C         137.9284  138.7003  167.0501 C.3     1  UNL1        0.0006
     38 C         138.1533  139.0475  165.6083 C.3     1  UNL1        0.0117
@<TRIPOS>BOND
     1    37    38    1
     2    38    36    1
     3    36    34    1
     4    34    35    2
     5    34    33    1
     6    25    33    1
     7    25     1    1
     8     1     2    2
     9     1     3   am
    10     3     4    1
    11     4     5    2
    12     5     6    1
    13     6     7    1
    14     7     8    1
    15     8     9    2
    16     8    10   am
    17    10    12    1
    18    12    13    1
    19    13    14   ar
    20    14    15   ar
    21    15    16    1
    22    15    17   ar
    23    17    18   ar
    24    18    19   ar
    25    19    20    1
    26    20    21   ar
    27    21    22   ar
    28    22    23   ar
    29    23    24   ar
    30    25    26    1
    31    26    27   ar
    32    27    28   ar
    33    28    29   ar
    34    29    30    1
    35    29    31   ar
    36    31    32   ar
    37     7     3    1
    38    19    13   ar
    39    24    20   ar
    40    32    26   ar
    41    10    11    1
@<TRIPOS>MOLECULE
*****
 38 41 0 0 0
SMALL
GASTEIGER

@<TRIPOS>ATOM
      1 C         140.9140  141.7502  164.9208 C.2     1  UNL1        0.2894
      2 O         140.7962  143.0011  164.1015 O.2     1  UNL1       -0.2688
      3 N         142.1272  140.8781  164.7879 N.am    1  UNL1       -0.1703
      4 N         142.3837  139.6042  165.5372 N.2     1  UNL1       -0.1783
      5 C         143.7119  139.0655  165.0948 C.2     1  UNL1        0.0938
      6 C         144.2762  140.0065  164.0720 C.3     1  UNL1        0.0799
      7 C         143.2968  141.1267  163.8823 C.3     1  UNL1        0.1809
      8 C         143.4587  142.2911  162.9506 C.2     1  UNL1        0.2432
      9 O         144.5495  143.2935  163.1855 O.2     1  UNL1       -0.2732
     10 N         142.5297  142.4530  161.7841 N.am    1  UNL1       -0.2990
     11 H         141.8138  141.7950  161.6299 H       1  UNL1        0.1498
     12 C         142.6916  143.6173  160.8524 C.3     1  UNL1        0.1179
     13 C         142.1720  143.5319  159.4478 C.ar    1  UNL1        0.0161
     14 C         143.1214  143.3001  158.3098 C.ar    1  UNL1        0.0103
     15 C         142.6018  143.2146  156.9053 C.ar    1  UNL1        0.0575
     16 CL        143.5512  142.9828  155.7672 Cl      1  UNL1       -0.0823
     17 C         141.1330  143.3610  156.6387 C.ar    1  UNL1        0.0129
     18 C         140.1837  143.5928  157.7767 C.ar    1  UNL1        0.0199
     19 C         140.7032  143.6782  159.1812 C.ar    1  UNL1        0.0839
     20 N         139.7538  143.9100  160.3193 N.ar    1  UNL1       -0.1889
     21 C         138.8500  142.8843  160.9364 C.ar    1  UNL1        0.2258
     22 N         138.0793  143.5486  162.0385 N.ar    1  UNL1       -0.1045
     23 N         138.5068  144.9850  162.1025 N.ar    1  UNL1       -0.0222
     24 N         139.5417  145.2084  161.0400 N.ar    1  UNL1       -0.0385
     25 C         139.8186  141.3714  165.8730 C.3     1  UNL1        0.2681
     26 C         140.0368  141.4892  167.3523 C.ar    1  UNL1        0.0265
     27 C         139.6560  140.3566  168.2591 C.ar    1  UNL1        0.0020
     28 C         139.8742  140.4744  169.7385 C.ar    1  UNL1        0.0294
     29 C         140.4731  141.7247  170.3110 C.ar    1  UNL1        0.1401
     30 F         140.6913  141.8425  171.7904 F       1  UNL1       -0.2042
     31 C         140.8540  142.8573  169.4043 C.ar    1  UNL1        0.0294
     32 C         140.6358  142.7395  167.9249 C.ar    1  UNL1        0.0020
     33 O         138.5051  140.8748  165.3458 O.3     1  UNL1       -0.4381
     34 C         138.4753  139.8187  164.2810 C.2     1  UNL1        0.3176
     35 O         137.8127  140.0992  162.9648 O.2     1  UNL1       -0.2501
     36 C         139.1079  138.4821  164.5324 C.3     1  UNL1        0.1096
     37 C         141.0274  137.0903  163.4700 C.3     1  UNL1        0.0006
     38 C         139.6516  137.6821  163.3860 C.3     1  UNL1        0.0117
@<TRIPOS>BOND
     1    37    38    1
     2    38    36    1
     3    36    34    1
     4    34    35    2
     5    34    33    1
     6    25    33    1
     7    25     1    1
     8     1     2    2
     9     1     3   am
    10     3     4    1
    11     4     5    2
    12     5     6    1
    13     6     7    1
    14     7     8    1
    15     8     9    2
    16     8    10   am
    17    10    12    1
    18    12    13    1
    19    13    14   ar
    20    14    15   ar
    21    15    16    1
    22    15    17   ar
    23    17    18   ar
    24    18    19   ar
    25    19    20    1
    26    20    21   ar
    27    21    22   ar
    28    22    23   ar
    29    23    24   ar
    30    25    26    1
    31    26    27   ar
    32    27    28   ar
    33    28    29   ar
    34    29    30    1
    35    29    31   ar
    36    31    32   ar
    37     7     3    1
    38    19    13   ar
    39    24    20   ar
    40    32    26   ar
    41    10    11    1
@<TRIPOS>MOLECULE
*****
 38 41 0 0 0
SMALL
GASTEIGER

@<TRIPOS>ATOM
      1 C         140.7029  140.9368  165.2581 C.2     1  UNL1        0.2894
      2 O         141.7948  140.6766  164.2631 O.2     1  UNL1       -0.2688
      3 N         139.7208  139.8540  165.5941 N.am    1  UNL1       -0.1703
      4 N         138.5822  139.9663  166.5641 N.2     1  UNL1       -0.1783
      5 C         137.8625  138.6504  166.5886 C.2     1  UNL1        0.0938
      6 C         138.5564  137.7248  165.6337 C.3     1  UNL1        0.0799
      7 C         139.7049  138.4687  165.0190 C.3     1  UNL1        0.1809
      8 C         140.6682  137.9230  164.0071 C.2     1  UNL1        0.2432
      9 O         141.5897  136.7993  164.3785 O.2     1  UNL1       -0.2732
     10 N         140.7101  138.5011  162.6235 N.am    1  UNL1       -0.2990
     11 H         140.1053  139.2387  162.3797 H       1  UNL1        0.1498
     12 C         141.6735  137.9554  161.6115 C.3     1  UNL1        0.1179
     13 C         142.0700  138.7880  160.4284 C.ar    1  UNL1        0.0161
     14 C         141.3122  138.6685  159.1395 C.ar    1  UNL1        0.0103
     15 C         141.7087  139.5010  157.9564 C.ar    1  UNL1        0.0575
     16 CL        140.9509  139.3815  156.6674 Cl      1  UNL1       -0.0823
     17 C         142.8630  140.4530  158.0623 C.ar    1  UNL1        0.0129
     18 C         143.6209  140.5725  159.3512 C.ar    1  UNL1        0.0199
     19 C         143.2243  139.7400  160.5343 C.ar    1  UNL1        0.0839
     20 N         143.9821  139.8594  161.8233 N.ar    1  UNL1       -0.1889
     21 C         144.7387  141.0666  162.2927 C.ar    1  UNL1        0.2258
     22 N         145.3406  140.7459  163.6287 N.ar    1  UNL1       -0.1045
     23 N         144.9559  139.3405  163.9850 N.ar    1  UNL1       -0.0222
     24 N         144.1164  138.7926  162.8692 N.ar    1  UNL1       -0.0385
     25 C         140.5931  142.2799  165.9171 C.3     1  UNL1        0.2681
     26 C         141.2039  142.5043  167.2685 C.ar    1  UNL1        0.0265
     27 C         140.3958  143.1406  168.3604 C.ar    1  UNL1        0.0020
     28 C         141.0064  143.3651  169.7119 C.ar    1  UNL1        0.0294
     29 C         142.4252  142.9534  169.9716 C.ar    1  UNL1        0.1401
     30 F         143.0360  143.1778  171.3231 F       1  UNL1       -0.2042
     31 C         143.2334  142.3171  168.8798 C.ar    1  UNL1        0.0294
     32 C         142.6227  142.0926  167.5282 C.ar    1  UNL1        0.0020
     33 O         139.8726  143.3984  165.2244 O.3     1  UNL1       -0.4381
     34 C         140.3917  143.9323  163.9223 C.2     1  UNL1        0.3176
     35 O         139.8047  143.4529  162.6279 O.2     1  UNL1       -0.2501
     36 C         141.4977  144.9455  163.9147 C.3     1  UNL1        0.1096
     37 C         143.8212  143.9779  164.5590 C.3     1  UNL1        0.0006
     38 C         142.8874  144.5359  163.5262 C.3     1  UNL1        0.0117
@<TRIPOS>BOND
     1    37    38    1
     2    38    36    1
     3    36    34    1
     4    34    35    2
     5    34    33    1
     6    25    33    1
     7    25     1    1
     8     1     2    2
     9     1     3   am
    10     3     4    1
    11     4     5    2
    12     5     6    1
    13     6     7    1
    14     7     8    1
    15     8     9    2
    16     8    10   am
    17    10    12    1
    18    12    13    1
    19    13    14   ar
    20    14    15   ar
    21    15    16    1
    22    15    17   ar
    23    17    18   ar
    24    18    19   ar
    25    19    20    1
    26    20    21   ar
    27    21    22   ar
    28    22    23   ar
    29    23    24   ar
    30    25    26    1
    31    26    27   ar
    32    27    28   ar
    33    28    29   ar
    34    29    30    1
    35    29    31   ar
    36    31    32   ar
    37     7     3    1
    38    19    13   ar
    39    24    20   ar
    40    32    26   ar
    41    10    11    1
@<TRIPOS>MOLECULE
*****
 38 41 0 0 0
SMALL
GASTEIGER

@<TRIPOS>ATOM
      1 C         141.0266  142.1847  163.7641 C.2     1  UNL1        0.2894
      2 O         141.0787  141.2032  162.6310 O.2     1  UNL1       -0.2688
      3 N         139.8065  143.0336  163.9656 N.am    1  UNL1       -0.1703
      4 N         139.6107  144.0529  165.0485 N.2     1  UNL1       -0.1783
      5 C         138.2511  144.6616  164.8718 C.2     1  UNL1        0.0938
      6 C         137.6067  144.0184  163.6797 C.3     1  UNL1        0.0799
      7 C         138.5680  143.0123  163.1196 C.3     1  UNL1        0.1809
      8 C         138.3322  142.1383  161.9236 C.2     1  UNL1        0.2432
      9 O         137.3020  141.0496  161.9817 O.2     1  UNL1       -0.2732
     10 N         139.1267  142.3529  160.6695 N.am    1  UNL1       -0.2990
     11 H         139.8029  143.0674  160.6314 H       1  UNL1        0.1498
     12 C         138.8909  141.4789  159.4735 C.3     1  UNL1        0.1179
     13 C         138.4420  142.0863  158.1775 C.ar    1  UNL1        0.0161
     14 C         137.2643  141.5113  157.4479 C.ar    1  UNL1        0.0103
     15 C         136.8155  142.1187  156.1519 C.ar    1  UNL1        0.0575
     16 CL        135.6377  141.5438  155.4223 Cl      1  UNL1       -0.0823
     17 C         137.5444  143.3011  155.5856 C.ar    1  UNL1        0.0129
     18 C         138.7221  143.8760  156.3151 C.ar    1  UNL1        0.0199
     19 C         139.1709  143.2686  157.6111 C.ar    1  UNL1        0.0839
     20 N         140.3487  143.8436  158.3408 N.ar    1  UNL1       -0.1889
     21 C         140.4286  145.2145  158.9442 C.ar    1  UNL1        0.2258
     22 N         141.7826  145.3667  159.5714 N.ar    1  UNL1       -0.1045
     23 N         142.5396  144.0898  159.3557 N.ar    1  UNL1       -0.0222
     24 N         141.6534  143.1485  158.5951 N.ar    1  UNL1       -0.0385
     25 C         142.1948  142.3172  164.6957 C.3     1  UNL1        0.2681
     26 C         142.3473  141.3680  165.8471 C.ar    1  UNL1        0.0265
     27 C         142.0976  141.8423  167.2481 C.ar    1  UNL1        0.0020
     28 C         142.2501  140.8932  168.3996 C.ar    1  UNL1        0.0294
     29 C         142.6522  139.4698  168.1501 C.ar    1  UNL1        0.1401
     30 F         142.8047  138.5206  169.3015 F       1  UNL1       -0.2042
     31 C         142.9019  138.9955  166.7491 C.ar    1  UNL1        0.0294
     32 C         142.7494  139.9446  165.5976 C.ar    1  UNL1        0.0020
     33 O         143.2105  143.3989  164.4758 O.3     1  UNL1       -0.4381
     34 C         144.6317  143.1925  164.9088 C.2     1  UNL1        0.3176
     35 O         145.2079  144.0275  166.0136 O.2     1  UNL1       -0.2501
     36 C         145.4767  142.1511  164.2369 C.3     1  UNL1        0.1096
     37 C         144.6485  140.5333  162.3804 C.3     1  UNL1        0.0006
     38 C         145.2679  141.8382  162.7848 C.3     1  UNL1        0.0117
@<TRIPOS>BOND
     1    37    38    1
     2    38    36    1
     3    36    34    1
     4    34    35    2
     5    34    33    1
     6    25    33    1
     7    25     1    1
     8     1     2    2
     9     1     3   am
    10     3     4    1
    11     4     5    2
    12     5     6    1
    13     6     7    1
    14     7     8    1
    15     8     9    2
    16     8    10   am
    17    10    12    1
    18    12    13    1
    19    13    14   ar
    20    14    15   ar
    21    15    16    1
    22    15    17   ar
    23    17    18   ar
    24    18    19   ar
    25    19    20    1
    26    20    21   ar
    27    21    22   ar
    28    22    23   ar
    29    23    24   ar
    30    25    26    1
    31    26    27   ar
    32    27    28   ar
    33    28    29   ar
    34    29    30    1
    35    29    31   ar
    36    31    32   ar
    37     7     3    1
    38    19    13   ar
    39    24    20   ar
    40    32    26   ar
    41    10    11    1
