@<TRIPOS>MOLECULE
*****
 30 33 0 0 0
SMALL
GASTEIGER

@<TRIPOS>ATOM
      1 C         141.4185  140.2817  167.3011 C.ar    1  UNL1        0.0832
      2 C         141.2877  139.9846  168.7656 C.ar    1  UNL1        0.0125
      3 C         140.2344  140.5281  169.6848 C.3     1  UNL1        0.0340
      4 C         142.3952  139.0485  169.1494 C.ar    1  UNL1        0.0924
      5 N         143.2104  138.7671  167.9222 N.ar    1  UNL1       -0.1671
      6 N         142.6068  139.5292  166.7799 N.ar    1  UNL1       -0.2119
      7 C         137.8202  143.8528  164.0918 C.3     1  UNL1        0.0521
      8 C         138.7198  142.9600  164.8941 C.ar    1  UNL1        0.0594
      9 C         139.8544  143.5486  165.6790 C.ar    1  UNL1        0.0148
     10 C         140.7540  142.6558  166.4814 C.ar    1  UNL1        0.0042
     11 C         140.5189  141.1745  166.4988 C.ar    1  UNL1        0.0366
     12 C         139.3843  140.5859  165.7139 C.ar    1  UNL1        0.0999
     13 N         138.4847  141.4787  164.9115 N.ar    1  UNL1       -0.2481
     14 C         143.1042  139.5374  165.3648 C.ar    1  UNL1        0.1743
     15 N         144.1134  140.5588  164.9304 N.ar    1  UNL1       -0.2243
     16 C         144.6108  140.5669  163.5153 C.ar    1  UNL1        0.1006
     17 C         144.0991  139.5539  162.5345 C.ar    1  UNL1        0.0217
     18 C         143.0900  138.5326  162.9689 C.ar    1  UNL1        0.0161
     19 C         142.5926  138.5244  164.3840 C.ar    1  UNL1        0.0934
     20 CL        141.5834  137.5030  164.8183 Cl      1  UNL1       -0.0790
     21 C         142.6437  138.4917  170.5199 C.3     1  UNL1        0.1166
     22 N         144.0353  138.4691  171.0792 N.3     1  UNL1       -0.2933
     23 H         144.0520  139.1320  171.8542 H       1  UNL1        0.1236
     24 C         144.6157  137.1856  171.5946 C.3     1  UNL1        0.0599
     25 C         144.0839  135.8083  171.3296 C.3     1  UNL1        0.0215
     26 C         144.9693  134.8255  172.0368 C.3     1  UNL1        0.0680
     27 C         146.0483  135.5954  172.7390 C.3     1  UNL1        0.2653
     28 F         146.5127  134.2385  173.1783 F       1  UNL1       -0.2043
     29 F         147.2243  136.0816  173.5330 F       1  UNL1       -0.2043
     30 C         145.8297  137.0540  172.4657 C.3     1  UNL1        0.0822
@<TRIPOS>BOND
     1     7     8    1
     2     8     9   ar
     3     9    10   ar
     4    10    11   ar
     5    11     1    1
     6     1     2   ar
     7     2     3    1
     8     2     4   ar
     9     4    21    1
    10    21    22    1
    11    22    24    1
    12    24    25    1
    13    25    26    1
    14    26    27    1
    15    27    28    1
    16    27    29    1
    17    27    30    1
    18     4     5   ar
    19     5     6   ar
    20     6    14    1
    21    14    15   ar
    22    15    16   ar
    23    16    17   ar
    24    17    18   ar
    25    18    19   ar
    26    19    20    1
    27    11    12   ar
    28    12    13   ar
    29    13     8   ar
    30     6     1   ar
    31    19    14   ar
    32    30    24    1
    33    22    23    1
@<TRIPOS>MOLECULE
*****
 30 33 0 0 0
SMALL
GASTEIGER

@<TRIPOS>ATOM
      1 C         140.8204  139.4985  165.3500 C.ar    1  UNL1        0.0832
      2 C         139.5763  138.7919  164.8994 C.ar    1  UNL1        0.0125
      3 C         138.5243  138.2034  165.7921 C.3     1  UNL1        0.0340
      4 C         139.5690  138.7771  163.3995 C.ar    1  UNL1        0.0924
      5 N         140.8085  139.4745  162.9230 N.ar    1  UNL1       -0.1671
      6 N         141.5819  139.9204  164.1285 N.ar    1  UNL1       -0.2119
      7 C         142.4623  140.4672  171.0391 C.3     1  UNL1        0.0521
      8 C         142.0518  140.2250  169.6168 C.ar    1  UNL1        0.0594
      9 C         140.7760  140.8152  169.0935 C.ar    1  UNL1        0.0148
     10 C         140.3655  140.5730  167.6712 C.ar    1  UNL1        0.0042
     11 C         141.2309  139.7406  166.7722 C.ar    1  UNL1        0.0366
     12 C         142.5067  139.1504  167.2955 C.ar    1  UNL1        0.0999
     13 N         142.9172  139.3926  168.7178 N.ar    1  UNL1       -0.2481
     14 C         142.8877  140.6585  164.1148 C.ar    1  UNL1        0.1743
     15 N         144.1713  139.9084  163.9154 N.ar    1  UNL1       -0.2243
     16 C         145.4770  140.6465  163.9017 C.ar    1  UNL1        0.1006
     17 C         145.4992  142.1348  164.0874 C.ar    1  UNL1        0.0217
     18 C         144.2156  142.8849  164.2867 C.ar    1  UNL1        0.0161
     19 C         142.9099  142.1468  164.3004 C.ar    1  UNL1        0.0934
     20 CL        141.6263  142.8970  164.4998 Cl      1  UNL1       -0.0790
     21 C         138.5083  138.1712  162.5290 C.3     1  UNL1        0.1166
     22 N         137.5266  139.0547  161.8179 N.3     1  UNL1       -0.2933
     23 H         136.6039  138.8280  162.1890 H       1  UNL1        0.1236
     24 C         137.6689  140.5461  161.8925 C.3     1  UNL1        0.0599
     25 C         138.1400  141.4433  160.7866 C.3     1  UNL1        0.0215
     26 C         138.1273  142.8538  161.2968 C.3     1  UNL1        0.0680
     27 C         137.6483  142.8284  162.7181 C.3     1  UNL1        0.2653
     28 F         137.8399  144.3142  162.6438 F       1  UNL1       -0.2043
     29 F         137.2094  143.1135  164.1238 F       1  UNL1       -0.2043
     30 C         137.3650  141.4021  163.0863 C.3     1  UNL1        0.0822
@<TRIPOS>BOND
     1     7     8    1
     2     8     9   ar
     3     9    10   ar
     4    10    11   ar
     5    11     1    1
     6     1     2   ar
     7     2     3    1
     8     2     4   ar
     9     4    21    1
    10    21    22    1
    11    22    24    1
    12    24    25    1
    13    25    26    1
    14    26    27    1
    15    27    28    1
    16    27    29    1
    17    27    30    1
    18     4     5   ar
    19     5     6   ar
    20     6    14    1
    21    14    15   ar
    22    15    16   ar
    23    16    17   ar
    24    17    18   ar
    25    18    19   ar
    26    19    20    1
    27    11    12   ar
    28    12    13   ar
    29    13     8   ar
    30     6     1   ar
    31    19    14   ar
    32    30    24    1
    33    22    23    1
@<TRIPOS>MOLECULE
*****
 30 33 0 0 0
SMALL
GASTEIGER

@<TRIPOS>ATOM
      1 C         142.0070  140.5242  165.6482 C.ar    1  UNL1        0.0832
      2 C         142.9076  139.4341  165.1477 C.ar    1  UNL1        0.0125
      3 C         143.6923  138.4791  165.9975 C.3     1  UNL1        0.0340
      4 C         142.8858  139.4667  163.6482 C.ar    1  UNL1        0.0924
      5 N         141.9717  140.5769  163.2220 N.ar    1  UNL1       -0.1671
      6 N         141.4286  141.2305  164.4581 N.ar    1  UNL1       -0.2119
      7 C         140.9109  141.8302  171.4009 C.3     1  UNL1        0.0521
      8 C         141.1849  141.5037  169.9627 C.ar    1  UNL1        0.0594
      9 C         140.3411  140.4889  169.2501 C.ar    1  UNL1        0.0148
     10 C         140.6151  140.1624  167.8119 C.ar    1  UNL1        0.0042
     11 C         141.7330  140.8507  167.0864 C.ar    1  UNL1        0.0366
     12 C         142.5769  141.8656  167.7990 C.ar    1  UNL1        0.0999
     13 N         142.3028  142.1921  169.2372 N.ar    1  UNL1       -0.2481
     14 C         140.4745  142.3874  164.4971 C.ar    1  UNL1        0.1743
     15 N         140.9886  143.7888  164.3492 N.ar    1  UNL1       -0.2243
     16 C         140.0345  144.9457  164.3882 C.ar    1  UNL1        0.1006
     17 C         138.5664  144.7011  164.5751 C.ar    1  UNL1        0.0217
     18 C         138.0524  143.2997  164.7230 C.ar    1  UNL1        0.0161
     19 C         139.0065  142.1429  164.6839 C.ar    1  UNL1        0.0934
     20 CL        138.4923  140.7415  164.8318 Cl      1  UNL1       -0.0790
     21 C         143.6448  138.5499  162.7353 C.3     1  UNL1        0.1166
     22 N         142.9074  137.7003  161.7432 N.3     1  UNL1       -0.2933
     23 H         143.0700  136.7290  162.0090 H       1  UNL1        0.1236
     24 C         141.4257  137.8605  161.5734 C.3     1  UNL1        0.0599
     25 C         140.7317  138.4186  160.3664 C.3     1  UNL1        0.0215
     26 C         139.2549  138.3937  160.6279 C.3     1  UNL1        0.0680
     27 C         139.0361  137.8202  161.9966 C.3     1  UNL1        0.2653
     28 F         137.5854  138.0395  161.6848 F       1  UNL1       -0.2043
     29 F         138.5140  137.2926  163.3000 F       1  UNL1       -0.2043
     30 C         140.3778  137.4906  162.5810 C.3     1  UNL1        0.0822
@<TRIPOS>BOND
     1     7     8    1
     2     8     9   ar
     3     9    10   ar
     4    10    11   ar
     5    11     1    1
     6     1     2   ar
     7     2     3    1
     8     2     4   ar
     9     4    21    1
    10    21    22    1
    11    22    24    1
    12    24    25    1
    13    25    26    1
    14    26    27    1
    15    27    28    1
    16    27    29    1
    17    27    30    1
    18     4     5   ar
    19     5     6   ar
    20     6    14    1
    21    14    15   ar
    22    15    16   ar
    23    16    17   ar
    24    17    18   ar
    25    18    19   ar
    26    19    20    1
    27    11    12   ar
    28    12    13   ar
    29    13     8   ar
    30     6     1   ar
    31    19    14   ar
    32    30    24    1
    33    22    23    1
@<TRIPOS>MOLECULE
*****
 30 33 0 0 0
SMALL
GASTEIGER

@<TRIPOS>ATOM
      1 C         140.4447  141.1737  165.3896 C.ar    1  UNL1        0.0832
      2 C         139.4522  140.0697  165.1752 C.ar    1  UNL1        0.0125
      3 C         138.8506  139.2051  166.2432 C.3     1  UNL1        0.0340
      4 C         139.1667  139.9819  163.7052 C.ar    1  UNL1        0.0924
      5 N         139.9829  141.0317  163.0111 N.ar    1  UNL1       -0.1671
      6 N         140.7727  141.7682  164.0521 N.ar    1  UNL1       -0.2119
      7 C         142.7058  142.9071  170.6700 C.3     1  UNL1        0.0521
      8 C         142.1405  142.4737  169.3499 C.ar    1  UNL1        0.0594
      9 C         140.8549  143.0661  168.8537 C.ar    1  UNL1        0.0148
     10 C         140.2896  142.6328  167.5336 C.ar    1  UNL1        0.0042
     11 C         141.0100  141.6070  166.7097 C.ar    1  UNL1        0.0366
     12 C         142.2956  141.0146  167.2059 C.ar    1  UNL1        0.0999
     13 N         142.8608  141.4480  168.5260 N.ar    1  UNL1       -0.2481
     14 C         141.7236  142.9006  163.7999 C.ar    1  UNL1        0.1743
     15 N         143.1173  142.6175  163.3226 N.ar    1  UNL1       -0.2243
     16 C         144.0682  143.7498  163.0703 C.ar    1  UNL1        0.1006
     17 C         143.6255  145.1652  163.2954 C.ar    1  UNL1        0.0217
     18 C         142.2320  145.4483  163.7727 C.ar    1  UNL1        0.0161
     19 C         141.2811  144.3159  164.0249 C.ar    1  UNL1        0.0934
     20 CL        139.8875  144.5991  164.5023 Cl      1  UNL1       -0.0790
     21 C         138.2297  139.0143  163.0452 C.3     1  UNL1        0.1166
     22 N         138.7755  137.8696  162.2441 N.3     1  UNL1       -0.2933
     23 H         138.0702  137.6368  161.5449 H       1  UNL1        0.1236
     24 C         140.0769  138.0188  161.5134 C.3     1  UNL1        0.0599
     25 C         140.2455  138.4938  160.1006 C.3     1  UNL1        0.0215
     26 C         141.7111  138.4877  159.7812 C.3     1  UNL1        0.0680
     27 C         142.4484  138.0090  160.9967 C.3     1  UNL1        0.2653
     28 F         143.6656  138.2073  160.1430 F       1  UNL1       -0.2043
     29 F         143.4401  137.5717  162.0336 F       1  UNL1       -0.2043
     30 C         141.4384  137.7191  162.0672 C.3     1  UNL1        0.0822
@<TRIPOS>BOND
     1     7     8    1
     2     8     9   ar
     3     9    10   ar
     4    10    11   ar
     5    11     1    1
     6     1     2   ar
     7     2     3    1
     8     2     4   ar
     9     4    21    1
    10    21    22    1
    11    22    24    1
    12    24    25    1
    13    25    26    1
    14    26    27    1
    15    27    28    1
    16    27    29    1
    17    27    30    1
    18     4     5   ar
    19     5     6   ar
    20     6    14    1
    21    14    15   ar
    22    15    16   ar
    23    16    17   ar
    24    17    18   ar
    25    18    19   ar
    26    19    20    1
    27    11    12   ar
    28    12    13   ar
    29    13     8   ar
    30     6     1   ar
    31    19    14   ar
    32    30    24    1
    33    22    23    1
@<TRIPOS>MOLECULE
*****
 30 33 0 0 0
SMALL
GASTEIGER

@<TRIPOS>ATOM
      1 C         141.4203  141.2627  164.7580 C.ar    1  UNL1        0.0832
      2 C         142.3068  141.1872  165.9656 C.ar    1  UNL1        0.0125
      3 C         142.9625  142.3487  166.6521 C.3     1  UNL1        0.0340
      4 C         142.4226  139.7464  166.3664 C.ar    1  UNL1        0.0924
      5 N         141.6076  138.9314  165.4064 N.ar    1  UNL1       -0.1671
      6 N         140.9882  139.8686  164.4124 N.ar    1  UNL1       -0.2119
      7 C         139.8743  146.2635  161.8249 C.3     1  UNL1        0.0521
      8 C         140.2608  145.0133  162.5582 C.ar    1  UNL1        0.0594
      9 C         139.6237  144.6900  163.8771 C.ar    1  UNL1        0.0148
     10 C         140.0102  143.4398  164.6104 C.ar    1  UNL1        0.0042
     11 C         141.0338  142.5129  164.0247 C.ar    1  UNL1        0.0366
     12 C         141.6709  142.8362  162.7058 C.ar    1  UNL1        0.0999
     13 N         141.2844  144.0864  161.9726 N.ar    1  UNL1       -0.2481
     14 C         140.0937  139.4797  163.2728 C.ar    1  UNL1        0.1743
     15 N         140.6765  138.8471  162.0439 N.ar    1  UNL1       -0.2243
     16 C         139.7820  138.4583  160.9043 C.ar    1  UNL1        0.1006
     17 C         138.3047  138.7020  160.9936 C.ar    1  UNL1        0.0217
     18 C         137.7218  139.3346  162.2225 C.ar    1  UNL1        0.0161
     19 C         138.6164  139.7234  163.3620 C.ar    1  UNL1        0.0934
     20 CL        138.0334  140.3560  164.5909 Cl      1  UNL1       -0.0790
     21 C         143.2143  139.2141  167.5239 C.3     1  UNL1        0.1166
     22 N         142.5898  139.1321  168.8852 N.3     1  UNL1       -0.2933
     23 H         143.3536  139.1494  169.5611 H       1  UNL1        0.1236
     24 C         141.6022  140.1736  169.3212 C.3     1  UNL1        0.0599
     25 C         140.1134  140.0038  169.3877 C.3     1  UNL1        0.0215
     26 C         139.5211  141.2929  169.8748 C.3     1  UNL1        0.0680
     27 C         140.6439  142.2595  170.1094 C.3     1  UNL1        0.2653
     28 F         139.5445  143.1942  170.5185 F       1  UNL1       -0.2043
     29 F         141.5369  143.4215  170.4295 F       1  UNL1       -0.2043
     30 C         141.9302  141.5677  169.7672 C.3     1  UNL1        0.0822
@<TRIPOS>BOND
     1     7     8    1
     2     8     9   ar
     3     9    10   ar
     4    10    11   ar
     5    11     1    1
     6     1     2   ar
     7     2     3    1
     8     2     4   ar
     9     4    21    1
    10    21    22    1
    11    22    24    1
    12    24    25    1
    13    25    26    1
    14    26    27    1
    15    27    28    1
    16    27    29    1
    17    27    30    1
    18     4     5   ar
    19     5     6   ar
    20     6    14    1
    21    14    15   ar
    22    15    16   ar
    23    16    17   ar
    24    17    18   ar
    25    18    19   ar
    26    19    20    1
    27    11    12   ar
    28    12    13   ar
    29    13     8   ar
    30     6     1   ar
    31    19    14   ar
    32    30    24    1
    33    22    23    1
@<TRIPOS>MOLECULE
*****
 30 33 0 0 0
SMALL
GASTEIGER

@<TRIPOS>ATOM
      1 C         140.2828  139.6909  164.8982 C.ar    1  UNL1        0.0832
      2 C         140.7348  138.5044  164.0995 C.ar    1  UNL1        0.0125
      3 C         141.2220  137.2000  164.6573 C.3     1  UNL1        0.0340
      4 C         140.6142  138.8513  162.6452 C.ar    1  UNL1        0.0924
      5 N         140.0876  140.2523  162.5450 N.ar    1  UNL1       -0.1671
      6 N         139.8828  140.7712  163.9374 N.ar    1  UNL1       -0.2119
      7 C         140.1058  140.0526  170.8846 C.3     1  UNL1        0.0521
      8 C         140.1501  139.9622  169.3880 C.ar    1  UNL1        0.0594
      9 C         141.4401  140.1988  168.6602 C.ar    1  UNL1        0.0148
     10 C         141.4843  140.1083  167.1636 C.ar    1  UNL1        0.0042
     11 C         140.2386  139.7814  166.3948 C.ar    1  UNL1        0.0366
     12 C         138.9485  139.5448  167.1226 C.ar    1  UNL1        0.0999
     13 N         138.9043  139.6352  168.6193 N.ar    1  UNL1       -0.2481
     14 C         139.3683  142.1315  164.3045 C.ar    1  UNL1        0.1743
     15 N         137.8929  142.4027  164.2964 N.ar    1  UNL1       -0.2243
     16 C         137.3784  143.7630  164.6636 C.ar    1  UNL1        0.1006
     17 C         138.3391  144.8521  165.0388 C.ar    1  UNL1        0.0217
     18 C         139.8144  144.5809  165.0470 C.ar    1  UNL1        0.0161
     19 C         140.3289  143.2206  164.6798 C.ar    1  UNL1        0.0934
     20 CL        141.8042  142.9495  164.6880 Cl      1  UNL1       -0.0790
     21 C         140.9595  137.9547  161.4933 C.3     1  UNL1        0.1166
     22 N         142.2857  138.0934  160.8063 N.3     1  UNL1       -0.2933
     23 H         142.0927  138.1808  159.8085 H       1  UNL1        0.1236
     24 C         143.2043  139.2220  161.1701 C.3     1  UNL1        0.0599
     25 C         143.4288  140.4696  160.3682 C.3     1  UNL1        0.0215
     26 C         144.4230  141.3198  161.1022 C.3     1  UNL1        0.0680
     27 C         144.8131  140.5976  162.3577 C.3     1  UNL1        0.2653
     28 F         145.6859  141.7954  162.5883 F       1  UNL1       -0.2043
     29 F         145.3855  140.1258  163.6614 F       1  UNL1       -0.2043
     30 C         144.0598  139.3010  162.3997 C.3     1  UNL1        0.0822
@<TRIPOS>BOND
     1     7     8    1
     2     8     9   ar
     3     9    10   ar
     4    10    11   ar
     5    11     1    1
     6     1     2   ar
     7     2     3    1
     8     2     4   ar
     9     4    21    1
    10    21    22    1
    11    22    24    1
    12    24    25    1
    13    25    26    1
    14    26    27    1
    15    27    28    1
    16    27    29    1
    17    27    30    1
    18     4     5   ar
    19     5     6   ar
    20     6    14    1
    21    14    15   ar
    22    15    16   ar
    23    16    17   ar
    24    17    18   ar
    25    18    19   ar
    26    19    20    1
    27    11    12   ar
    28    12    13   ar
    29    13     8   ar
    30     6     1   ar
    31    19    14   ar
    32    30    24    1
    33    22    23    1
@<TRIPOS>MOLECULE
*****
 30 33 0 0 0
SMALL
GASTEIGER

@<TRIPOS>ATOM
      1 C         141.3880  140.5427  166.2323 C.ar    1  UNL1        0.0832
      2 C         142.7092  139.8505  166.0734 C.ar    1  UNL1        0.0125
      3 C         143.2671  138.7960  166.9827 C.3     1  UNL1        0.0340
      4 C         143.3746  140.3979  164.8455 C.ar    1  UNL1        0.0924
      5 N         142.4646  141.4284  164.2455 N.ar    1  UNL1       -0.1671
      6 N         141.2368  141.5179  165.1026 N.ar    1  UNL1       -0.2119
      7 C         137.4068  139.5798  170.6167 C.3     1  UNL1        0.0521
      8 C         138.4021  139.8205  169.5206 C.ar    1  UNL1        0.0594
      9 C         139.5943  140.6962  169.7691 C.ar    1  UNL1        0.0148
     10 C         140.5896  140.9369  168.6730 C.ar    1  UNL1        0.0042
     11 C         140.3927  140.3020  167.3284 C.ar    1  UNL1        0.0366
     12 C         139.2005  139.4263  167.0799 C.ar    1  UNL1        0.0999
     13 N         138.2052  139.1856  168.1760 N.ar    1  UNL1       -0.2481
     14 C         140.0638  142.4236  164.8707 C.ar    1  UNL1        0.1743
     15 N         140.0705  143.8168  165.4267 N.ar    1  UNL1       -0.2243
     16 C         138.8976  144.7226  165.1948 C.ar    1  UNL1        0.1006
     17 C         137.7179  144.2351  164.4070 C.ar    1  UNL1        0.0217
     18 C         137.7111  142.8420  163.8510 C.ar    1  UNL1        0.0161
     19 C         138.8841  141.9363  164.0829 C.ar    1  UNL1        0.0934
     20 CL        138.8773  140.5431  163.5269 Cl      1  UNL1       -0.0790
     21 C         144.7146  139.9869  164.3114 C.3     1  UNL1        0.1166
     22 N         144.8028  138.9951  163.1896 N.3     1  UNL1       -0.2933
     23 H         145.0111  138.0904  163.6121 H       1  UNL1        0.1236
     24 C         143.6297  138.7875  162.2781 C.3     1  UNL1        0.0599
     25 C         143.5192  139.2653  160.8605 C.3     1  UNL1        0.0215
     26 C         142.1824  138.8387  160.3305 C.3     1  UNL1        0.0680
     27 C         141.4666  138.0974  161.4205 C.3     1  UNL1        0.2653
     28 F         140.3748  137.9684  160.4002 F       1  UNL1       -0.2043
     29 F         140.5226  137.3291  162.2972 F       1  UNL1       -0.2043
     30 C         142.3612  138.0657  162.6243 C.3     1  UNL1        0.0822
@<TRIPOS>BOND
     1     7     8    1
     2     8     9   ar
     3     9    10   ar
     4    10    11   ar
     5    11     1    1
     6     1     2   ar
     7     2     3    1
     8     2     4   ar
     9     4    21    1
    10    21    22    1
    11    22    24    1
    12    24    25    1
    13    25    26    1
    14    26    27    1
    15    27    28    1
    16    27    29    1
    17    27    30    1
    18     4     5   ar
    19     5     6   ar
    20     6    14    1
    21    14    15   ar
    22    15    16   ar
    23    16    17   ar
    24    17    18   ar
    25    18    19   ar
    26    19    20    1
    27    11    12   ar
    28    12    13   ar
    29    13     8   ar
    30     6     1   ar
    31    19    14   ar
    32    30    24    1
    33    22    23    1
@<TRIPOS>MOLECULE
*****
 30 33 0 0 0
SMALL
GASTEIGER

@<TRIPOS>ATOM
      1 C         140.7296  139.9779  165.1797 C.ar    1  UNL1        0.0832
      2 C         139.5328  139.1028  164.9520 C.ar    1  UNL1        0.0125
      3 C         138.4017  138.8883  165.9135 C.3     1  UNL1        0.0340
      4 C         139.6658  138.4798  163.5940 C.ar    1  UNL1        0.0924
      5 N         140.9448  138.9698  162.9824 N.ar    1  UNL1       -0.1671
      6 N         141.6023  139.8957  163.9625 N.ar    1  UNL1       -0.2119
      7 C         141.8327  143.2350  170.0965 C.3     1  UNL1        0.0521
      8 C         141.5569  142.4207  168.8673 C.ar    1  UNL1        0.0594
      9 C         140.5567  142.9013  167.8581 C.ar    1  UNL1        0.0148
     10 C         140.2809  142.0870  166.6289 C.ar    1  UNL1        0.0042
     11 C         141.0054  140.7921  166.4089 C.ar    1  UNL1        0.0366
     12 C         142.0056  140.3116  167.4181 C.ar    1  UNL1        0.0999
     13 N         142.2814  141.1258  168.6473 N.ar    1  UNL1       -0.2481
     14 C         142.9039  140.6134  163.7606 C.ar    1  UNL1        0.1743
     15 N         142.9366  141.9093  163.0058 N.ar    1  UNL1       -0.2243
     16 C         144.2382  142.6270  162.8040 C.ar    1  UNL1        0.1006
     17 C         145.5071  142.0489  163.3569 C.ar    1  UNL1        0.0217
     18 C         145.4743  140.7530  164.1117 C.ar    1  UNL1        0.0161
     19 C         144.1727  140.0353  164.3135 C.ar    1  UNL1        0.0934
     20 CL        144.1401  138.7394  165.0683 Cl      1  UNL1       -0.0790
     21 C         138.6909  137.5330  162.9590 C.3     1  UNL1        0.1166
     22 N         137.8091  138.0030  161.8404 N.3     1  UNL1       -0.2933
     23 H         136.8613  138.0535  162.2139 H       1  UNL1        0.1236
     24 C         138.0818  139.3180  161.1723 C.3     1  UNL1        0.0599
     25 C         138.7784  139.5114  159.8580 C.3     1  UNL1        0.0215
     26 C         138.8330  140.9834  159.5746 C.3     1  UNL1        0.0680
     27 C         138.1701  141.6997  160.7137 C.3     1  UNL1        0.2653
     28 F         138.5106  142.9326  159.9303 F       1  UNL1       -0.2043
     29 F         137.5785  142.6737  161.6890 F       1  UNL1       -0.2043
     30 C         137.7059  140.6704  161.7012 C.3     1  UNL1        0.0822
@<TRIPOS>BOND
     1     7     8    1
     2     8     9   ar
     3     9    10   ar
     4    10    11   ar
     5    11     1    1
     6     1     2   ar
     7     2     3    1
     8     2     4   ar
     9     4    21    1
    10    21    22    1
    11    22    24    1
    12    24    25    1
    13    25    26    1
    14    26    27    1
    15    27    28    1
    16    27    29    1
    17    27    30    1
    18     4     5   ar
    19     5     6   ar
    20     6    14    1
    21    14    15   ar
    22    15    16   ar
    23    16    17   ar
    24    17    18   ar
    25    18    19   ar
    26    19    20    1
    27    11    12   ar
    28    12    13   ar
    29    13     8   ar
    30     6     1   ar
    31    19    14   ar
    32    30    24    1
    33    22    23    1
@<TRIPOS>MOLECULE
*****
 30 33 0 0 0
SMALL
GASTEIGER

@<TRIPOS>ATOM
      1 C         141.2546  140.4383  165.1033 C.ar    1  UNL1        0.0832
      2 C         142.6864  139.9911  165.0990 C.ar    1  UNL1        0.0125
      3 C         143.2289  138.7644  165.7706 C.3     1  UNL1        0.0340
      4 C         143.4804  140.9858  164.3053 C.ar    1  UNL1        0.0924
      5 N         142.5394  142.0478  163.8190 N.ar    1  UNL1       -0.1671
      6 N         141.1638  141.7095  164.3122 N.ar    1  UNL1       -0.2119
      7 C         136.6922  137.6348  167.8097 C.3     1  UNL1        0.0521
      8 C         137.8328  138.3357  167.1331 C.ar    1  UNL1        0.0594
      9 C         138.2011  137.9803  165.7231 C.ar    1  UNL1        0.0148
     10 C         139.3417  138.6812  165.0465 C.ar    1  UNL1        0.0042
     11 C         140.1140  139.7374  165.7799 C.ar    1  UNL1        0.0366
     12 C         139.7457  140.0928  167.1899 C.ar    1  UNL1        0.0999
     13 N         138.6051  139.3919  167.8665 N.ar    1  UNL1       -0.2481
     14 C         139.9163  142.5030  164.0588 C.ar    1  UNL1        0.1743
     15 N         139.2153  142.3965  162.7368 N.ar    1  UNL1       -0.2243
     16 C         137.9678  143.1900  162.4834 C.ar    1  UNL1        0.1006
     17 C         137.4214  144.0900  163.5518 C.ar    1  UNL1        0.0217
     18 C         138.1224  144.1964  164.8736 C.ar    1  UNL1        0.0161
     19 C         139.3699  143.4029  165.1270 C.ar    1  UNL1        0.0934
     20 CL        140.0708  143.5094  166.4490 Cl      1  UNL1       -0.0790
     21 C         144.9563  140.9285  164.0437 C.3     1  UNL1        0.1166
     22 N         145.4624  140.6387  162.6618 N.3     1  UNL1       -0.2933
     23 H         146.1967  139.9373  162.7582 H       1  UNL1        0.1236
     24 C         144.5202  140.1371  161.6079 C.3     1  UNL1        0.0599
     25 C         143.8495  140.9700  160.5561 C.3     1  UNL1        0.0215
     26 C         142.9980  140.0621  159.7190 C.3     1  UNL1        0.0680
     27 C         143.1424  138.6680  160.2534 C.3     1  UNL1        0.2653
     28 F         142.1903  138.3148  159.1496 F       1  UNL1       -0.2043
     29 F         143.0878  137.2001  160.5571 F       1  UNL1       -0.2043
     30 C         144.0832  138.7143  161.4209 C.3     1  UNL1        0.0822
@<TRIPOS>BOND
     1     7     8    1
     2     8     9   ar
     3     9    10   ar
     4    10    11   ar
     5    11     1    1
     6     1     2   ar
     7     2     3    1
     8     2     4   ar
     9     4    21    1
    10    21    22    1
    11    22    24    1
    12    24    25    1
    13    25    26    1
    14    26    27    1
    15    27    28    1
    16    27    29    1
    17    27    30    1
    18     4     5   ar
    19     5     6   ar
    20     6    14    1
    21    14    15   ar
    22    15    16   ar
    23    16    17   ar
    24    17    18   ar
    25    18    19   ar
    26    19    20    1
    27    11    12   ar
    28    12    13   ar
    29    13     8   ar
    30     6     1   ar
    31    19    14   ar
    32    30    24    1
    33    22    23    1
