@<TRIPOS>MOLECULE
*****
 42 46 0 0 0
SMALL
GASTEIGER

@<TRIPOS>ATOM
      1 C         142.6471  144.1917  162.5397 C.2     1  UNL1        0.2251
      2 O         143.7560  145.1330  162.9064 O.2     1  UNL1       -0.2749
      3 N         142.2109  143.1329  163.5084 N.am    1  UNL1       -0.2794
      4 C         141.1020  142.1917  163.1416 C.3     1  UNL1        0.0954
      5 C         140.6658  141.1327  164.1103 C.3     1  UNL1        0.0440
      6 C         141.3385  141.0150  165.4458 C.3     1  UNL1        0.0839
      7 C         142.4475  141.9562  165.8126 C.3     1  UNL1        0.0440
      8 C         142.8836  143.0151  164.8439 C.3     1  UNL1        0.0954
      9 C         140.6289  144.5450  158.5332 C.3     1  UNL1        0.0542
     10 C         141.8027  143.6268  158.7033 C.3     1  UNL1        0.0162
     11 C         142.4755  143.5091  160.0388 C.3     1  UNL1        0.0104
     12 C         141.9743  144.3095  161.2042 C.3     1  UNL1        0.0768
     13 C         140.8004  145.2277  161.0341 C.3     1  UNL1        0.0095
     14 C         139.7312  146.2254  161.3680 C.3     1  UNL1        0.0005
     15 C         141.1018  145.4564  162.4855 C.3     1  UNL1        0.0005
     16 C         140.1277  145.3455  159.6986 C.3     1  UNL1        0.0162
     17 N         139.9562  144.6628  157.1977 N.3     1  UNL1       -0.2962
     18 H         139.9500  143.7288  156.7877 H       1  UNL1        0.1235
     19 C         140.5121  145.5889  156.1569 C.3     1  UNL1        0.0768
     20 C         141.6741  145.1570  155.3124 C.3     1  UNL1        0.0220
     21 C         138.6938  149.6628  155.5681 C.ar    1  UNL1        0.1387
     22 C         139.5400  149.0560  154.4884 C.ar    1  UNL1        0.0366
     23 C         140.1460  147.6980  154.6847 C.ar    1  UNL1        0.0001
     24 C         139.9060  146.9469  155.9606 C.ar    1  UNL1       -0.0078
     25 C         139.0598  147.5537  157.0403 C.ar    1  UNL1        0.0001
     26 C         138.4537  148.9117  156.8440 C.ar    1  UNL1        0.0366
     27 C         138.8840  152.1100  154.7165 C.3     1  UNL1        0.2525
     28 O         138.0877  151.0208  155.3718 O.3     1  UNL1       -0.4714
     29 N         140.3432  139.8982  165.5562 N.am    1  UNL1       -0.2638
     30 C         139.0962  140.0826  166.3691 C.3     1  UNL1        0.0969
     31 C         138.1008  138.9659  166.4794 C.3     1  UNL1        0.0428
     32 C         138.3525  137.6648  165.7768 C.3     1  UNL1        0.0927
     33 N         139.5996  137.4804  164.9639 N.am    1  UNL1       -0.2887
     34 C         140.5949  138.5971  164.8536 C.2     1  UNL1        0.3041
     35 O         141.8420  138.4127  164.0406 O.2     1  UNL1       -0.2526
     36 H         139.7648  136.6264  164.5027 H       1  UNL1        0.1510
     37 C         141.6656  140.5094  166.8196 C.ar    1  UNL1       -0.0059
     38 C         142.6399  139.3820  166.9916 C.ar    1  UNL1       -0.0027
     39 C         142.9670  138.8764  168.3655 C.ar    1  UNL1       -0.0003
     40 C         142.3198  139.4982  169.5673 C.ar    1  UNL1       -0.0000
     41 C         141.3455  140.6256  169.3953 C.ar    1  UNL1       -0.0003
     42 C         141.0184  141.1313  168.0215 C.ar    1  UNL1       -0.0027
@<TRIPOS>BOND
     1    27    28    1
     2    28    21    1
     3    21    22   ar
     4    22    23   ar
     5    23    24   ar
     6    24    19    1
     7    19    20    1
     8    19    17    1
     9     9    17    1
    10     9    10    1
    11    10    11    1
    12    11    12    1
    13    12     1    1
    14     1     2    2
    15     1     3   am
    16     3     4    1
    17     4     5    1
    18     5     6    1
    19     6    37    1
    20    37    38   ar
    21    38    39   ar
    22    39    40   ar
    23    40    41   ar
    24    41    42   ar
    25     6    29    1
    26    29    30    1
    27    30    31    1
    28    31    32    1
    29    32    33    1
    30    33    34   am
    31    34    35    2
    32     6     7    1
    33     7     8    1
    34    12    13    1
    35    13    14    1
    36    13    15    1
    37    13    16    1
    38    24    25   ar
    39    25    26   ar
    40    26    21   ar
    41    16     9    1
    42     8     3    1
    43    42    37   ar
    44    34    29   am
    45    17    18    1
    46    33    36    1
@<TRIPOS>MOLECULE
*****
 42 46 0 0 0
SMALL
GASTEIGER

@<TRIPOS>ATOM
      1 C         142.6895  144.2146  163.2034 C.2     1  UNL1        0.2251
      2 O         143.7230  145.1814  163.7009 O.2     1  UNL1       -0.2749
      3 N         142.2128  143.1036  164.0913 N.am    1  UNL1       -0.2794
      4 C         141.1794  142.1370  163.5938 C.3     1  UNL1        0.0954
      5 C         140.7026  141.0259  164.4817 C.3     1  UNL1        0.0440
      6 C         141.2593  140.8816  165.8670 C.3     1  UNL1        0.0839
      7 C         142.2928  141.8483  166.3645 C.3     1  UNL1        0.0440
      8 C         142.7695  142.9593  165.4766 C.3     1  UNL1        0.0954
      9 C         141.0194  144.6477  159.0473 C.3     1  UNL1        0.0542
     10 C         142.1975  143.7523  159.2926 C.3     1  UNL1        0.0162
     11 C         142.7542  143.6079  160.6780 C.3     1  UNL1        0.0104
     12 C         142.1328  144.3590  161.8180 C.3     1  UNL1        0.0768
     13 C         140.9546  145.2544  161.5727 C.3     1  UNL1        0.0095
     14 C         139.8347  146.2156  161.8409 C.3     1  UNL1        0.0005
     15 C         141.1224  145.4439  163.0512 C.3     1  UNL1        0.0005
     16 C         140.3979  145.3988  160.1874 C.3     1  UNL1        0.0162
     17 N         140.4627  144.7920  157.6619 N.3     1  UNL1       -0.2962
     18 H         139.9274  145.6602  157.6487 H       1  UNL1        0.1235
     19 C         139.5722  143.7256  157.0966 C.3     1  UNL1        0.0768
     20 C         138.7512  144.0051  155.8728 C.3     1  UNL1        0.0220
     21 C         139.3637  139.6878  159.0721 C.ar    1  UNL1        0.1387
     22 C         140.3083  139.9158  157.9295 C.ar    1  UNL1        0.0366
     23 C         140.3779  141.2618  157.2710 C.ar    1  UNL1        0.0001
     24 C         139.5027  142.3796  157.7551 C.ar    1  UNL1       -0.0078
     25 C         138.5580  142.1516  158.8977 C.ar    1  UNL1        0.0001
     26 C         138.4885  140.8057  159.5562 C.ar    1  UNL1        0.0366
     27 C         139.2173  138.2412  161.2252 C.3     1  UNL1        0.2525
     28 O         139.2942  138.3418  159.7306 O.3     1  UNL1       -0.4714
     29 N         140.3040  139.7253  165.8484 N.am    1  UNL1       -0.2638
     30 C         138.9745  139.8397  166.5337 C.3     1  UNL1        0.0969
     31 C         138.0192  138.6835  166.5151 C.3     1  UNL1        0.0428
     32 C         138.3932  137.4128  165.8112 C.3     1  UNL1        0.0927
     33 N         139.7226  137.2984  165.1259 N.am    1  UNL1       -0.2887
     34 C         140.6780  138.4547  165.1445 C.2     1  UNL1        0.3041
     35 O         142.0074  138.3402  164.4592 O.2     1  UNL1       -0.2526
     36 H         139.9681  136.4644  164.6639 H       1  UNL1        0.1510
     37 C         141.4842  140.3357  167.2459 C.ar    1  UNL1       -0.0059
     38 C         142.6207  139.3908  167.5023 C.ar    1  UNL1       -0.0027
     39 C         142.8456  138.8449  168.8813 C.ar    1  UNL1       -0.0003
     40 C         141.9342  139.2438  170.0037 C.ar    1  UNL1       -0.0000
     41 C         140.7977  140.1886  169.7473 C.ar    1  UNL1       -0.0003
     42 C         140.5727  140.7346  168.3684 C.ar    1  UNL1       -0.0027
@<TRIPOS>BOND
     1    27    28    1
     2    28    21    1
     3    21    22   ar
     4    22    23   ar
     5    23    24   ar
     6    24    19    1
     7    19    20    1
     8    19    17    1
     9     9    17    1
    10     9    10    1
    11    10    11    1
    12    11    12    1
    13    12     1    1
    14     1     2    2
    15     1     3   am
    16     3     4    1
    17     4     5    1
    18     5     6    1
    19     6    37    1
    20    37    38   ar
    21    38    39   ar
    22    39    40   ar
    23    40    41   ar
    24    41    42   ar
    25     6    29    1
    26    29    30    1
    27    30    31    1
    28    31    32    1
    29    32    33    1
    30    33    34   am
    31    34    35    2
    32     6     7    1
    33     7     8    1
    34    12    13    1
    35    13    14    1
    36    13    15    1
    37    13    16    1
    38    24    25   ar
    39    25    26   ar
    40    26    21   ar
    41    16     9    1
    42     8     3    1
    43    42    37   ar
    44    34    29   am
    45    17    18    1
    46    33    36    1
@<TRIPOS>MOLECULE
*****
 42 46 0 0 0
SMALL
GASTEIGER

@<TRIPOS>ATOM
      1 C         140.5636  144.3280  161.7364 C.2     1  UNL1        0.2251
      2 O         141.4624  145.3498  162.3677 O.2     1  UNL1       -0.2749
      3 N         140.3054  144.3666  160.2594 N.am    1  UNL1       -0.2794
      4 C         139.4067  143.3449  159.6282 C.3     1  UNL1        0.0954
      5 C         139.1484  143.3835  158.1511 C.3     1  UNL1        0.0440
      6 C         139.7888  144.4438  157.3052 C.3     1  UNL1        0.0839
      7 C         140.6875  145.4656  157.9364 C.3     1  UNL1        0.0440
      8 C         140.9458  145.4270  159.4135 C.3     1  UNL1        0.0954
      9 C         138.6424  141.1470  164.2741 C.3     1  UNL1        0.0542
     10 C         139.8078  140.8026  163.3948 C.3     1  UNL1        0.0162
     11 C         140.4482  141.8630  162.5489 C.3     1  UNL1        0.0104
     12 C         139.9232  143.2677  162.5823 C.3     1  UNL1        0.0768
     13 C         138.7578  143.6121  163.4617 C.3     1  UNL1        0.0095
     14 C         137.6854  144.4225  164.1275 C.3     1  UNL1        0.0005
     15 C         139.0258  144.9538  162.8470 C.3     1  UNL1        0.0005
     16 C         138.1173  142.5518  164.3076 C.3     1  UNL1        0.0162
     17 N         138.0020  140.0867  165.1200 N.3     1  UNL1       -0.2962
     18 H         137.4661  140.5693  165.8414 H       1  UNL1        0.1235
     19 C         138.8538  139.0701  165.8207 C.3     1  UNL1        0.0768
     20 C         138.6917  137.6121  165.5080 C.3     1  UNL1        0.0220
     21 C         141.8959  140.3946  168.8607 C.ar    1  UNL1        0.1387
     22 C         140.4366  140.4014  169.2078 C.ar    1  UNL1        0.0366
     23 C         139.4226  139.9599  168.1944 C.ar    1  UNL1        0.0001
     24 C         139.8678  139.5116  166.8340 C.ar    1  UNL1       -0.0078
     25 C         141.3271  139.5049  166.4870 C.ar    1  UNL1        0.0001
     26 C         142.3411  139.9464  167.5003 C.ar    1  UNL1        0.0366
     27 C         143.6203  142.1460  169.7026 C.3     1  UNL1        0.2525
     28 O         142.9099  140.8361  169.8740 O.3     1  UNL1       -0.4714
     29 N         139.0198  143.7007  156.2534 N.am    1  UNL1       -0.2638
     30 C         137.7730  144.2993  155.6724 C.3     1  UNL1        0.0969
     31 C         137.0040  143.5562  154.6206 C.3     1  UNL1        0.0428
     32 C         137.4816  142.2145  154.1497 C.3     1  UNL1        0.0927
     33 N         138.7284  141.6159  154.7306 N.am    1  UNL1       -0.2887
     34 C         139.4974  142.3591  155.7825 C.2     1  UNL1        0.3041
     35 O         140.7441  141.7605  156.3634 O.2     1  UNL1       -0.2526
     36 H         139.0418  140.7353  154.4216 H       1  UNL1        0.1510
     37 C         140.1622  145.2461  156.0940 C.ar    1  UNL1       -0.0059
     38 C         139.4730  146.5490  155.8158 C.ar    1  UNL1       -0.0027
     39 C         139.8464  147.3513  154.6046 C.ar    1  UNL1       -0.0003
     40 C         140.9088  146.8507  153.6716 C.ar    1  UNL1       -0.0000
     41 C         141.5979  145.5477  153.9498 C.ar    1  UNL1       -0.0003
     42 C         141.2246  144.7454  155.1610 C.ar    1  UNL1       -0.0027
@<TRIPOS>BOND
     1    27    28    1
     2    28    21    1
     3    21    22   ar
     4    22    23   ar
     5    23    24   ar
     6    24    19    1
     7    19    20    1
     8    19    17    1
     9     9    17    1
    10     9    10    1
    11    10    11    1
    12    11    12    1
    13    12     1    1
    14     1     2    2
    15     1     3   am
    16     3     4    1
    17     4     5    1
    18     5     6    1
    19     6    37    1
    20    37    38   ar
    21    38    39   ar
    22    39    40   ar
    23    40    41   ar
    24    41    42   ar
    25     6    29    1
    26    29    30    1
    27    30    31    1
    28    31    32    1
    29    32    33    1
    30    33    34   am
    31    34    35    2
    32     6     7    1
    33     7     8    1
    34    12    13    1
    35    13    14    1
    36    13    15    1
    37    13    16    1
    38    24    25   ar
    39    25    26   ar
    40    26    21   ar
    41    16     9    1
    42     8     3    1
    43    42    37   ar
    44    34    29   am
    45    17    18    1
    46    33    36    1
@<TRIPOS>MOLECULE
*****
 42 46 0 0 0
SMALL
GASTEIGER

@<TRIPOS>ATOM
      1 C         142.6378  144.2198  163.0625 C.2     1  UNL1        0.2251
      2 O         143.6920  145.1782  163.5319 O.2     1  UNL1       -0.2749
      3 N         142.1751  143.1136  163.9637 N.am    1  UNL1       -0.2794
      4 C         141.1209  142.1553  163.4943 C.3     1  UNL1        0.0954
      5 C         140.6582  141.0490  164.3955 C.3     1  UNL1        0.0440
      6 C         141.2496  140.9011  165.7660 C.3     1  UNL1        0.0839
      7 C         142.3038  141.8595  166.2353 C.3     1  UNL1        0.0440
      8 C         142.7665  142.9657  165.3342 C.3     1  UNL1        0.0954
      9 C         140.8634  144.6636  158.9510 C.3     1  UNL1        0.0542
     10 C         142.0271  143.7430  159.1703 C.3     1  UNL1        0.0162
     11 C         142.6186  143.5950  160.5408 C.3     1  UNL1        0.0104
     12 C         142.0463  144.3678  161.6920 C.3     1  UNL1        0.0768
     13 C         140.8825  145.2884  161.4728 C.3     1  UNL1        0.0095
     14 C         139.7927  146.2769  161.7647 C.3     1  UNL1        0.0005
     15 C         141.0955  145.4838  162.9446 C.3     1  UNL1        0.0005
     16 C         140.2910  145.4363  160.1023 C.3     1  UNL1        0.0162
     17 N         140.2719  144.8115  157.5805 N.3     1  UNL1       -0.2962
     18 H         139.3050  145.1101  157.7078 H       1  UNL1        0.1235
     19 C         140.2434  143.6390  156.6454 C.3     1  UNL1        0.0768
     20 C         141.4173  143.3624  155.7535 C.3     1  UNL1        0.0220
     21 C         136.6364  140.9515  156.5157 C.ar    1  UNL1        0.1387
     22 C         136.9668  141.8207  155.3388 C.ar    1  UNL1        0.0366
     23 C         138.1691  142.7166  155.3820 C.ar    1  UNL1        0.0001
     24 C         139.0411  142.7432  156.6021 C.ar    1  UNL1       -0.0078
     25 C         138.7108  141.8739  157.7791 C.ar    1  UNL1        0.0001
     26 C         137.5085  140.9781  157.7359 C.ar    1  UNL1        0.0366
     27 C         134.1109  140.5976  156.0193 C.3     1  UNL1        0.2525
     28 O         135.4341  140.0556  156.4725 O.3     1  UNL1       -0.4714
     29 N         140.2844  139.7529  165.7735 N.am    1  UNL1       -0.2638
     30 C         138.9681  139.8843  166.4807 C.3     1  UNL1        0.0969
     31 C         138.0029  138.7361  166.4882 C.3     1  UNL1        0.0428
     32 C         138.3540  137.4566  165.7886 C.3     1  UNL1        0.0927
     33 N         139.6704  137.3252  165.0814 N.am    1  UNL1       -0.2887
     34 C         140.6356  138.4734  165.0739 C.2     1  UNL1        0.3041
     35 O         141.9519  138.3420  164.3667 O.2     1  UNL1       -0.2526
     36 H         139.9008  136.4854  164.6222 H       1  UNL1        0.1510
     37 C         141.5059  140.3544  167.1391 C.ar    1  UNL1       -0.0059
     38 C         140.6227  140.7560  168.2831 C.ar    1  UNL1       -0.0027
     39 C         140.8790  140.2093  169.6562 C.ar    1  UNL1       -0.0003
     40 C         142.0184  139.2611  169.8854 C.ar    1  UNL1       -0.0000
     41 C         142.9016  138.8596  168.7414 C.ar    1  UNL1       -0.0003
     42 C         142.6454  139.4062  167.3683 C.ar    1  UNL1       -0.0027
@<TRIPOS>BOND
     1    27    28    1
     2    28    21    1
     3    21    22   ar
     4    22    23   ar
     5    23    24   ar
     6    24    19    1
     7    19    20    1
     8    19    17    1
     9     9    17    1
    10     9    10    1
    11    10    11    1
    12    11    12    1
    13    12     1    1
    14     1     2    2
    15     1     3   am
    16     3     4    1
    17     4     5    1
    18     5     6    1
    19     6    37    1
    20    37    38   ar
    21    38    39   ar
    22    39    40   ar
    23    40    41   ar
    24    41    42   ar
    25     6    29    1
    26    29    30    1
    27    30    31    1
    28    31    32    1
    29    32    33    1
    30    33    34   am
    31    34    35    2
    32     6     7    1
    33     7     8    1
    34    12    13    1
    35    13    14    1
    36    13    15    1
    37    13    16    1
    38    24    25   ar
    39    25    26   ar
    40    26    21   ar
    41    16     9    1
    42     8     3    1
    43    42    37   ar
    44    34    29   am
    45    17    18    1
    46    33    36    1
@<TRIPOS>MOLECULE
*****
 42 46 0 0 0
SMALL
GASTEIGER

@<TRIPOS>ATOM
      1 C         140.1784  144.8422  161.9509 C.2     1  UNL1        0.2251
      2 O         140.0243  146.3258  161.7917 O.2     1  UNL1       -0.2749
      3 N         140.2061  143.9569  160.7403 N.am    1  UNL1       -0.2794
      4 C         140.3603  142.4734  160.8995 C.3     1  UNL1        0.0954
      5 C         140.3880  141.5880  159.6890 C.3     1  UNL1        0.0440
      6 C         140.2616  142.1862  158.3192 C.3     1  UNL1        0.0839
      7 C         140.1074  143.6698  158.1601 C.3     1  UNL1        0.0440
      8 C         140.0797  144.5551  159.3706 C.3     1  UNL1        0.0954
      9 C         140.5578  143.0475  166.0601 C.3     1  UNL1        0.0542
     10 C         141.7754  143.2180  165.2008 C.3     1  UNL1        0.0162
     11 C         141.6489  143.8162  163.8310 C.3     1  UNL1        0.0104
     12 C         140.3049  144.2440  163.3206 C.3     1  UNL1        0.0768
     13 C         139.0872  144.0735  164.1799 C.3     1  UNL1        0.0095
     14 C         137.6527  144.1159  164.6161 C.3     1  UNL1        0.0005
     15 C         138.4626  144.6864  162.9617 C.3     1  UNL1        0.0005
     16 C         139.2137  143.4753  165.5496 C.3     1  UNL1        0.0162
     17 N         140.6842  142.4493  167.4298 N.3     1  UNL1       -0.2962
     18 H         141.6567  142.5675  167.7141 H       1  UNL1        0.1235
     19 C         140.3402  141.0065  167.6527 C.3     1  UNL1        0.0768
     20 C         140.2554  140.4627  169.0481 C.3     1  UNL1        0.0220
     21 C         139.5625  138.3093  164.1355 C.ar    1  UNL1        0.1387
     22 C         140.9704  138.5775  164.5782 C.ar    1  UNL1        0.0366
     23 C         141.2296  139.4765  165.7506 C.ar    1  UNL1        0.0001
     24 C         140.0810  140.1074  166.4803 C.ar    1  UNL1       -0.0078
     25 C         138.6731  139.8393  166.0377 C.ar    1  UNL1        0.0001
     26 C         138.4139  138.9402  164.8653 C.ar    1  UNL1        0.0366
     27 C         139.3351  137.9661  161.5703 C.3     1  UNL1        0.2525
     28 O         139.3033  137.4103  162.9631 O.3     1  UNL1       -0.4714
     29 N         140.3869  140.7354  157.9593 N.am    1  UNL1       -0.2638
     30 C         141.6916  140.1994  157.4488 C.3     1  UNL1        0.0969
     31 C         141.8169  138.7486  157.0889 C.3     1  UNL1        0.0428
     32 C         140.6377  137.8339  157.2395 C.3     1  UNL1        0.0927
     33 N         139.3331  138.3700  157.7500 N.am    1  UNL1       -0.2887
     34 C         139.2077  139.8207  158.1099 C.2     1  UNL1        0.3041
     35 O         137.9030  140.3568  158.6204 O.2     1  UNL1       -0.2526
     36 H         138.5591  137.7696  157.8488 H       1  UNL1        0.1510
     37 C         140.1787  142.2806  156.8246 C.ar    1  UNL1       -0.0059
     38 C         141.4065  142.5986  156.0239 C.ar    1  UNL1       -0.0027
     39 C         141.3236  142.6930  154.5291 C.ar    1  UNL1       -0.0003
     40 C         140.0129  142.4693  153.8351 C.ar    1  UNL1       -0.0000
     41 C         138.7850  142.1513  154.6357 C.ar    1  UNL1       -0.0003
     42 C         138.8678  142.0569  156.1305 C.ar    1  UNL1       -0.0027
@<TRIPOS>BOND
     1    27    28    1
     2    28    21    1
     3    21    22   ar
     4    22    23   ar
     5    23    24   ar
     6    24    19    1
     7    19    20    1
     8    19    17    1
     9     9    17    1
    10     9    10    1
    11    10    11    1
    12    11    12    1
    13    12     1    1
    14     1     2    2
    15     1     3   am
    16     3     4    1
    17     4     5    1
    18     5     6    1
    19     6    37    1
    20    37    38   ar
    21    38    39   ar
    22    39    40   ar
    23    40    41   ar
    24    41    42   ar
    25     6    29    1
    26    29    30    1
    27    30    31    1
    28    31    32    1
    29    32    33    1
    30    33    34   am
    31    34    35    2
    32     6     7    1
    33     7     8    1
    34    12    13    1
    35    13    14    1
    36    13    15    1
    37    13    16    1
    38    24    25   ar
    39    25    26   ar
    40    26    21   ar
    41    16     9    1
    42     8     3    1
    43    42    37   ar
    44    34    29   am
    45    17    18    1
    46    33    36    1
@<TRIPOS>MOLECULE
*****
 42 46 0 0 0
SMALL
GASTEIGER

@<TRIPOS>ATOM
      1 C         140.5074  145.0866  162.1240 C.2     1  UNL1        0.2251
      2 O         140.1569  146.5432  162.0506 O.2     1  UNL1       -0.2749
      3 N         140.8774  144.3405  160.8764 N.am    1  UNL1       -0.2794
      4 C         141.2280  142.8839  160.9498 C.3     1  UNL1        0.0954
      5 C         141.5980  142.1377  159.7022 C.3     1  UNL1        0.0440
      6 C         141.6175  142.8482  158.3813 C.3     1  UNL1        0.0839
      7 C         141.2669  144.3049  158.3080 C.3     1  UNL1        0.0440
      8 C         140.8969  145.0510  159.5555 C.3     1  UNL1        0.0954
      9 C         140.4490  142.9551  166.0867 C.3     1  UNL1        0.0542
     10 C         141.7564  143.2533  165.4147 C.3     1  UNL1        0.0162
     11 C         141.7759  143.9638  164.0938 C.3     1  UNL1        0.0104
     12 C         140.4879  144.3761  163.4449 C.3     1  UNL1        0.0768
     13 C         139.1804  144.0778  164.1168 C.3     1  UNL1        0.0095
     14 C         137.7013  144.0193  164.3594 C.3     1  UNL1        0.0005
     15 C         138.6862  144.7680  162.8802 C.3     1  UNL1        0.0005
     16 C         139.1609  143.3673  165.4378 C.3     1  UNL1        0.0162
     17 N         140.4295  142.2446  167.4076 N.3     1  UNL1       -0.2962
     18 H         141.3832  142.2680  167.7686 H       1  UNL1        0.1235
     19 C         139.9720  140.8182  167.4853 C.3     1  UNL1        0.0768
     20 C         139.5289  140.2432  168.7979 C.3     1  UNL1        0.0220
     21 C         139.9289  138.2641  163.7807 C.ar    1  UNL1        0.1387
     22 C         138.6594  138.8939  164.2723 C.ar    1  UNL1        0.0366
     23 C         138.6738  139.7452  165.5072 C.ar    1  UNL1        0.0001
     24 C         139.9576  139.9668  166.2504 C.ar    1  UNL1       -0.0078
     25 C         141.2271  139.3371  165.7588 C.ar    1  UNL1        0.0001
     26 C         141.2127  138.4857  164.5240 C.ar    1  UNL1        0.0366
     27 C         139.4726  137.9972  161.2370 C.3     1  UNL1        0.2525
     28 O         139.9145  137.4127  162.5458 O.3     1  UNL1       -0.4714
     29 N         142.0238  141.4724  157.9431 N.am    1  UNL1       -0.2638
     30 C         141.0381  140.5879  157.2387 C.3     1  UNL1        0.0969
     31 C         141.4444  139.2121  156.8005 C.3     1  UNL1        0.0428
     32 C         142.8364  138.7208  157.0667 C.3     1  UNL1        0.0927
     33 N         143.8221  139.6052  157.7710 N.am    1  UNL1       -0.2887
     34 C         143.4158  140.9810  158.2093 C.2     1  UNL1        0.3041
     35 O         144.4015  141.8655  158.9136 O.2     1  UNL1       -0.2526
     36 H         144.7357  139.2827  157.9457 H       1  UNL1        0.1510
     37 C         141.7781  143.0809  156.9082 C.ar    1  UNL1       -0.0059
     38 C         140.5715  143.1101  156.0176 C.ar    1  UNL1       -0.0027
     39 C         140.7321  143.3428  154.5445 C.ar    1  UNL1       -0.0003
     40 C         142.0992  143.5463  153.9620 C.ar    1  UNL1       -0.0000
     41 C         143.3058  143.5171  154.8526 C.ar    1  UNL1       -0.0003
     42 C         143.1453  143.2844  156.3257 C.ar    1  UNL1       -0.0027
@<TRIPOS>BOND
     1    27    28    1
     2    28    21    1
     3    21    22   ar
     4    22    23   ar
     5    23    24   ar
     6    24    19    1
     7    19    20    1
     8    19    17    1
     9     9    17    1
    10     9    10    1
    11    10    11    1
    12    11    12    1
    13    12     1    1
    14     1     2    2
    15     1     3   am
    16     3     4    1
    17     4     5    1
    18     5     6    1
    19     6    37    1
    20    37    38   ar
    21    38    39   ar
    22    39    40   ar
    23    40    41   ar
    24    41    42   ar
    25     6    29    1
    26    29    30    1
    27    30    31    1
    28    31    32    1
    29    32    33    1
    30    33    34   am
    31    34    35    2
    32     6     7    1
    33     7     8    1
    34    12    13    1
    35    13    14    1
    36    13    15    1
    37    13    16    1
    38    24    25   ar
    39    25    26   ar
    40    26    21   ar
    41    16     9    1
    42     8     3    1
    43    42    37   ar
    44    34    29   am
    45    17    18    1
    46    33    36    1
@<TRIPOS>MOLECULE
*****
 42 46 0 0 0
SMALL
GASTEIGER

@<TRIPOS>ATOM
      1 C         138.2133  139.2321  161.8316 C.2     1  UNL1        0.2251
      2 O         137.2024  138.1655  161.5306 O.2     1  UNL1       -0.2749
      3 N         138.6560  140.1725  160.7500 N.am    1  UNL1       -0.2794
      4 C         139.6668  141.2391  161.0510 C.3     1  UNL1        0.0954
      5 C         140.1095  142.1795  159.9695 C.3     1  UNL1        0.0440
      6 C         139.5415  142.0532  158.5870 C.3     1  UNL1        0.0839
      7 C         138.5306  140.9865  158.2860 C.3     1  UNL1        0.0440
      8 C         138.0879  140.0462  159.3675 C.3     1  UNL1        0.0954
      9 C         139.9175  139.6109  165.9791 C.3     1  UNL1        0.0542
     10 C         138.8724  140.5775  165.5065 C.3     1  UNL1        0.0162
     11 C         138.3043  140.4513  164.1240 C.3     1  UNL1        0.0104
     12 C         138.7813  139.3584  163.2141 C.3     1  UNL1        0.0768
     13 C         139.8265  138.3917  163.6866 C.3     1  UNL1        0.0095
     14 C         140.7906  137.2427  163.6781 C.3     1  UNL1        0.0005
     15 C         139.5933  137.8664  162.3012 C.3     1  UNL1        0.0005
     16 C         140.3946  138.5180  165.0692 C.3     1  UNL1        0.0162
     17 N         140.4855  139.7372  167.3616 N.3     1  UNL1       -0.2962
     18 H         140.0924  140.5876  167.7650 H       1  UNL1        0.1235
     19 C         141.9707  139.8111  167.5584 C.3     1  UNL1        0.0768
     20 C         142.5621  139.5470  168.9113 C.3     1  UNL1        0.0220
     21 C         144.6521  140.8254  164.0898 C.ar    1  UNL1        0.1387
     22 C         143.8561  141.9039  164.7628 C.ar    1  UNL1        0.0366
     23 C         142.9623  141.5659  165.9190 C.ar    1  UNL1        0.0001
     24 C         142.8645  140.1492  166.4022 C.ar    1  UNL1       -0.0078
     25 C         143.6606  139.0707  165.7292 C.ar    1  UNL1        0.0001
     26 C         144.5544  139.4088  164.5730 C.ar    1  UNL1        0.0366
     27 C         145.1176  142.1931  161.9305 C.3     1  UNL1        0.2525
     28 O         145.5460  141.1635  162.9336 O.3     1  UNL1       -0.4714
     29 N         140.4666  143.2162  158.3833 N.am    1  UNL1       -0.2638
     30 C         139.9082  144.5987  158.2184 C.3     1  UNL1        0.0969
     31 C         140.8333  145.7618  158.0147 C.3     1  UNL1        0.0428
     32 C         142.3167  145.5424  157.9759 C.3     1  UNL1        0.0927
     33 N         142.8750  144.1599  158.1407 N.am    1  UNL1       -0.2887
     34 C         141.9499  142.9969  158.3444 C.2     1  UNL1        0.3041
     35 O         142.5082  141.6144  158.5092 O.2     1  UNL1       -0.2526
     36 H         143.8485  144.0159  158.1152 H       1  UNL1        0.1510
     37 C         139.2947  142.3308  157.1337 C.ar    1  UNL1       -0.0059
     38 C         138.0349  143.0236  156.7059 C.ar    1  UNL1       -0.0027
     39 C         137.7881  143.3013  155.2526 C.ar    1  UNL1       -0.0003
     40 C         138.8010  142.8861  154.2272 C.ar    1  UNL1       -0.0000
     41 C         140.0608  142.1933  154.6550 C.ar    1  UNL1       -0.0003
     42 C         140.3076  141.9157  156.1082 C.ar    1  UNL1       -0.0027
@<TRIPOS>BOND
     1    27    28    1
     2    28    21    1
     3    21    22   ar
     4    22    23   ar
     5    23    24   ar
     6    24    19    1
     7    19    20    1
     8    19    17    1
     9     9    17    1
    10     9    10    1
    11    10    11    1
    12    11    12    1
    13    12     1    1
    14     1     2    2
    15     1     3   am
    16     3     4    1
    17     4     5    1
    18     5     6    1
    19     6    37    1
    20    37    38   ar
    21    38    39   ar
    22    39    40   ar
    23    40    41   ar
    24    41    42   ar
    25     6    29    1
    26    29    30    1
    27    30    31    1
    28    31    32    1
    29    32    33    1
    30    33    34   am
    31    34    35    2
    32     6     7    1
    33     7     8    1
    34    12    13    1
    35    13    14    1
    36    13    15    1
    37    13    16    1
    38    24    25   ar
    39    25    26   ar
    40    26    21   ar
    41    16     9    1
    42     8     3    1
    43    42    37   ar
    44    34    29   am
    45    17    18    1
    46    33    36    1
@<TRIPOS>MOLECULE
*****
 42 46 0 0 0
SMALL
GASTEIGER

@<TRIPOS>ATOM
      1 C         144.8226  141.6830  163.3374 C.2     1  UNL1        0.2251
      2 O         146.3212  141.7421  163.3106 O.2     1  UNL1       -0.2749
      3 N         144.0421  141.8607  162.0689 N.am    1  UNL1       -0.2794
      4 C         142.5436  141.8016  162.0957 C.3     1  UNL1        0.0954
      5 C         141.7630  141.9794  160.8271 C.3     1  UNL1        0.0440
      6 C         142.4812  142.2163  159.5317 C.3     1  UNL1        0.0839
      7 C         143.9798  142.2754  159.5049 C.3     1  UNL1        0.0440
      8 C         144.7602  142.0976  160.7734 C.3     1  UNL1        0.0954
      9 C         142.6682  140.9723  167.2237 C.3     1  UNL1        0.0542
     10 C         143.0076  142.3703  166.7991 C.3     1  UNL1        0.0162
     11 C         143.7257  142.6072  165.5037 C.3     1  UNL1        0.0104
     12 C         144.1044  141.4461  164.6328 C.3     1  UNL1        0.0768
     13 C         143.7650  140.0480  165.0575 C.3     1  UNL1        0.0095
     14 C         143.6627  138.5518  165.0288 C.3     1  UNL1        0.0005
     15 C         144.4476  139.7653  163.7521 C.3     1  UNL1        0.0005
     16 C         143.0469  139.8111  166.3529 C.3     1  UNL1        0.0162
     17 N         141.9501  140.7354  168.5192 N.3     1  UNL1       -0.2962
     18 H         142.3323  139.8765  168.9150 H       1  UNL1        0.1235
     19 C         140.4570  140.5919  168.5337 C.3     1  UNL1        0.0768
     20 C         139.7321  140.4277  169.8365 C.3     1  UNL1        0.0220
     21 C         138.1530  140.6536  164.6688 C.ar    1  UNL1        0.1387
     22 C         138.8986  141.8755  165.1171 C.ar    1  UNL1        0.0366
     23 C         139.6666  141.8549  166.4054 C.ar    1  UNL1        0.0001
     24 C         139.6890  140.6124  167.2454 C.ar    1  UNL1       -0.0078
     25 C         138.9434  139.3906  166.7972 C.ar    1  UNL1        0.0001
     26 C         138.1753  139.4111  165.5089 C.ar    1  UNL1        0.0366
     27 C         137.8781  141.4956  162.2264 C.3     1  UNL1        0.2525
     28 O         137.3849  140.6742  163.3805 O.3     1  UNL1       -0.4714
     29 N         141.0606  142.2426  159.0507 N.am    1  UNL1       -0.2638
     30 C         140.5111  141.0846  158.2715 C.3     1  UNL1        0.0969
     31 C         139.0906  141.1109  157.7904 C.3     1  UNL1        0.0428
     32 C         138.2196  142.2951  158.0886 C.3     1  UNL1        0.0927
     33 N         138.7691  143.4531  158.8678 N.am    1  UNL1       -0.2887
     34 C         140.1897  143.4268  159.3488 C.2     1  UNL1        0.3041
     35 O         140.7392  144.5848  160.1280 O.2     1  UNL1       -0.2526
     36 H         138.1975  144.2304  159.0635 H       1  UNL1        0.1510
     37 C         142.7060  142.4623  158.0692 C.ar    1  UNL1       -0.0059
     38 C         143.1531  141.3401  157.1799 C.ar    1  UNL1       -0.0027
     39 C         143.3778  141.5862  155.7174 C.ar    1  UNL1       -0.0003
     40 C         143.1556  142.9543  155.1442 C.ar    1  UNL1       -0.0000
     41 C         142.7085  144.0765  156.0335 C.ar    1  UNL1       -0.0003
     42 C         142.4837  143.8305  157.4960 C.ar    1  UNL1       -0.0027
@<TRIPOS>BOND
     1    27    28    1
     2    28    21    1
     3    21    22   ar
     4    22    23   ar
     5    23    24   ar
     6    24    19    1
     7    19    20    1
     8    19    17    1
     9     9    17    1
    10     9    10    1
    11    10    11    1
    12    11    12    1
    13    12     1    1
    14     1     2    2
    15     1     3   am
    16     3     4    1
    17     4     5    1
    18     5     6    1
    19     6    37    1
    20    37    38   ar
    21    38    39   ar
    22    39    40   ar
    23    40    41   ar
    24    41    42   ar
    25     6    29    1
    26    29    30    1
    27    30    31    1
    28    31    32    1
    29    32    33    1
    30    33    34   am
    31    34    35    2
    32     6     7    1
    33     7     8    1
    34    12    13    1
    35    13    14    1
    36    13    15    1
    37    13    16    1
    38    24    25   ar
    39    25    26   ar
    40    26    21   ar
    41    16     9    1
    42     8     3    1
    43    42    37   ar
    44    34    29   am
    45    17    18    1
    46    33    36    1
@<TRIPOS>MOLECULE
*****
 42 46 0 0 0
SMALL
GASTEIGER

@<TRIPOS>ATOM
      1 C         143.5664  138.7211  161.7335 C.2     1  UNL1        0.2251
      2 O         144.3549  137.5014  161.3585 O.2     1  UNL1       -0.2749
      3 N         143.1997  139.7289  160.6847 N.am    1  UNL1       -0.2794
      4 C         142.4113  140.9485  161.0598 C.3     1  UNL1        0.0954
      5 C         142.0445  141.9563  160.0110 C.3     1  UNL1        0.0440
      6 C         142.4663  141.7444  158.5872 C.3     1  UNL1        0.0839
      7 C         143.2548  140.5246  158.2122 C.3     1  UNL1        0.0440
      8 C         143.6215  139.5169  159.2609 C.3     1  UNL1        0.0954
      9 C         142.3012  139.3569  166.0049 C.3     1  UNL1        0.0542
     10 C         143.4517  140.1358  165.4396 C.3     1  UNL1        0.0162
     11 C         143.8734  139.9239  164.0158 C.3     1  UNL1        0.0104
     12 C         143.1447  138.9331  163.1573 C.3     1  UNL1        0.0768
     13 C         141.9941  138.1541  163.7226 C.3     1  UNL1        0.0095
     14 C         140.8523  137.1846  163.8031 C.3     1  UNL1        0.0005
     15 C         142.0193  137.6055  162.3268 C.3     1  UNL1        0.0005
     16 C         141.5724  138.3660  165.1464 C.3     1  UNL1        0.0162
     17 N         141.8795  139.5689  167.4287 N.3     1  UNL1       -0.2962
     18 H         141.8223  138.6460  167.8594 H       1  UNL1        0.1235
     19 C         140.5881  140.2690  167.7321 C.3     1  UNL1        0.0768
     20 C         140.0129  140.2149  169.1164 C.3     1  UNL1        0.0220
     21 C         138.4395  142.5317  164.4896 C.ar    1  UNL1        0.1387
     22 C         138.0986  141.0951  164.7539 C.ar    1  UNL1        0.0366
     23 C         138.8147  140.3409  165.8347 C.ar    1  UNL1        0.0001
     24 C         139.8719  141.0232  166.6513 C.ar    1  UNL1       -0.0078
     25 C         140.2128  142.4598  166.3870 C.ar    1  UNL1        0.0001
     26 C         139.4967  143.2140  165.3062 C.ar    1  UNL1        0.0366
     27 C         137.9752  142.9523  161.9682 C.3     1  UNL1        0.2525
     28 O         137.7233  143.2859  163.4088 O.3     1  UNL1       -0.4714
     29 N         141.7362  143.0477  158.4514 N.am    1  UNL1       -0.2638
     30 C         142.5023  144.3153  158.2138 C.3     1  UNL1        0.0969
     31 C         141.7722  145.6185  158.0780 C.3     1  UNL1        0.0428
     32 C         140.2762  145.6543  158.1798 C.3     1  UNL1        0.0927
     33 N         139.5101  144.3867  158.4174 N.am    1  UNL1       -0.2887
     34 C         140.2401  143.0834  158.5532 C.2     1  UNL1        0.3041
     35 O         139.4740  141.8159  158.7908 O.2     1  UNL1       -0.2526
     36 H         138.5281  144.4102  158.4842 H       1  UNL1        0.1510
     37 C         142.6345  141.9851  157.1163 C.ar    1  UNL1       -0.0059
     38 C         141.4968  141.7140  156.1770 C.ar    1  UNL1       -0.0027
     39 C         141.6650  141.9547  154.7060 C.ar    1  UNL1       -0.0003
     40 C         142.9708  142.4664  154.1743 C.ar    1  UNL1       -0.0000
     41 C         144.1085  142.7375  155.1135 C.ar    1  UNL1       -0.0003
     42 C         143.9404  142.4968  156.5845 C.ar    1  UNL1       -0.0027
@<TRIPOS>BOND
     1    27    28    1
     2    28    21    1
     3    21    22   ar
     4    22    23   ar
     5    23    24   ar
     6    24    19    1
     7    19    20    1
     8    19    17    1
     9     9    17    1
    10     9    10    1
    11    10    11    1
    12    11    12    1
    13    12     1    1
    14     1     2    2
    15     1     3   am
    16     3     4    1
    17     4     5    1
    18     5     6    1
    19     6    37    1
    20    37    38   ar
    21    38    39   ar
    22    39    40   ar
    23    40    41   ar
    24    41    42   ar
    25     6    29    1
    26    29    30    1
    27    30    31    1
    28    31    32    1
    29    32    33    1
    30    33    34   am
    31    34    35    2
    32     6     7    1
    33     7     8    1
    34    12    13    1
    35    13    14    1
    36    13    15    1
    37    13    16    1
    38    24    25   ar
    39    25    26   ar
    40    26    21   ar
    41    16     9    1
    42     8     3    1
    43    42    37   ar
    44    34    29   am
    45    17    18    1
    46    33    36    1
