@<TRIPOS>MOLECULE
*****
 34 37 0 0 0
SMALL
GASTEIGER

@<TRIPOS>ATOM
      1 C         139.5007  140.5057  164.8403 C.ar    1  UNL1        0.0827
      2 C         138.6220  139.9217  165.9065 C.ar    1  UNL1        0.0230
      3 C         138.3629  138.4446  165.9392 C.ar    1  UNL1        0.0744
      4 C         138.9826  137.5515  164.9057 C.ar    1  UNL1        0.0230
      5 C         139.8613  138.1354  163.8394 C.ar    1  UNL1        0.0828
      6 N         140.4810  137.2422  162.8059 N.ar    1  UNL1       -0.2425
      7 C         141.3597  137.8261  161.7397 C.ar    1  UNL1        0.1139
      8 C         141.6188  139.3032  161.7070 C.ar    1  UNL1        0.0750
      9 C         140.9991  140.1964  162.7405 C.ar    1  UNL1        0.0197
     10 C         140.1204  139.6125  163.8067 C.ar    1  UNL1        0.0366
     11 N         142.4976  139.8871  160.6407 N.pl3   1  UNL1       -0.2597
     12 C         142.5021  139.2924  159.2637 C.2     1  UNL1        0.0863
     13 C         143.3808  139.8763  158.1974 C.2     1  UNL1        0.0885
     14 N         144.2551  141.0549  158.5083 N.am    1  UNL1       -0.2323
     15 C         145.1339  141.6388  157.4421 C.2     1  UNL1        0.2337
     16 C         145.1384  141.0441  156.0650 C.3     1  UNL1        0.0955
     17 O         146.0082  142.8174  157.7529 O.2     1  UNL1       -0.2742
     18 C         144.2506  141.6496  159.8854 C.2     1  UNL1        0.0885
     19 C         143.3719  141.0657  160.9516 C.2     1  UNL1        0.0863
     20 C         137.4841  137.8607  167.0055 C.3     1  UNL1        0.4187
     21 F         136.6054  137.2769  168.0717 F       1  UNL1       -0.1659
     22 F         137.5183  136.5337  166.3071 F       1  UNL1       -0.1659
     23 F         137.4499  139.1878  167.7039 F       1  UNL1       -0.1659
     24 C         140.5857  142.6233  165.8835 C.2     1  UNL1        0.0990
     25 N         139.7598  141.9828  164.8076 N.2     1  UNL1       -0.2438
     26 C         141.1525  141.7868  166.9921 C.ar    1  UNL1        0.0252
     27 C         142.3990  140.9842  166.7639 C.ar    1  UNL1        0.0020
     28 C         142.9659  140.1477  167.8724 C.ar    1  UNL1        0.0064
     29 C         142.2863  140.1139  169.2091 C.ar    1  UNL1        0.0753
     30 C         141.0398  140.9164  169.4374 C.ar    1  UNL1        0.2901
     31 C         140.4729  141.7529  168.3288 C.ar    1  UNL1        0.0768
     32 N         140.3602  140.8825  170.7742 N.pl3   1  UNL1        0.0809
     33 O         139.4379  139.7507  171.1181 O.2     1  UNL1        0.0415
     34 O         140.6029  141.9804  171.7670 O.co2   1  UNL1       -0.5760
@<TRIPOS>UNITY_ATOM_ATTR
32 1
charge 1
34 1
charge -1
@<TRIPOS>BOND
     1    24    25    2
     2    25     1    1
     3     1     2   ar
     4     2     3   ar
     5     3    20    1
     6    20    21    1
     7    20    22    1
     8    20    23    1
     9     3     4   ar
    10     4     5   ar
    11     5     6   ar
    12     6     7   ar
    13     7     8   ar
    14     8    11    1
    15    11    12    1
    16    12    13    2
    17    13    14    1
    18    14    15   am
    19    15    16    1
    20    15    17    2
    21    14    18    1
    22    18    19    2
    23     8     9   ar
    24     9    10   ar
    25    24    26    1
    26    26    27   ar
    27    27    28   ar
    28    28    29   ar
    29    29    30   ar
    30    30    32    1
    31    32    33    2
    32    32    34    1
    33    30    31   ar
    34    10     1   ar
    35    31    26   ar
    36    10     5   ar
    37    19    11    1
@<TRIPOS>MOLECULE
*****
 34 37 0 0 0
SMALL
GASTEIGER

@<TRIPOS>ATOM
      1 C         139.1601  140.5475  164.2233 C.ar    1  UNL1        0.0827
      2 C         138.3409  140.0602  165.3815 C.ar    1  UNL1        0.0230
      3 C         138.3989  138.6172  165.7868 C.ar    1  UNL1        0.0744
      4 C         139.2762  137.6614  165.0339 C.ar    1  UNL1        0.0230
      5 C         140.0954  138.1486  163.8757 C.ar    1  UNL1        0.0828
      6 N         140.9727  137.1928  163.1228 N.ar    1  UNL1       -0.2425
      7 C         141.7919  137.6800  161.9646 C.ar    1  UNL1        0.1139
      8 C         141.7338  139.1231  161.5593 C.ar    1  UNL1        0.0750
      9 C         140.8566  140.0789  162.3121 C.ar    1  UNL1        0.0197
     10 C         140.0374  139.5916  163.4703 C.ar    1  UNL1        0.0366
     11 N         142.5531  139.6103  160.4010 N.pl3   1  UNL1       -0.2597
     12 C         142.5387  138.8583  159.1032 C.2     1  UNL1        0.0863
     13 C         143.3580  139.3455  157.9450 C.2     1  UNL1        0.0885
     14 N         144.1916  140.5847  158.0846 N.am    1  UNL1       -0.2323
     15 C         145.0108  141.0719  156.9264 C.2     1  UNL1        0.2337
     16 C         144.9965  140.3199  155.6286 C.3     1  UNL1        0.0955
     17 O         145.8444  142.3111  157.0660 O.2     1  UNL1       -0.2742
     18 C         144.2059  141.3367  159.3824 C.2     1  UNL1        0.0885
     19 C         143.3867  140.8495  160.5406 C.2     1  UNL1        0.0863
     20 C         137.5797  138.1300  166.9451 C.3     1  UNL1        0.4187
     21 F         136.7604  137.6429  168.1033 F       1  UNL1       -0.1659
     22 F         137.5325  136.7602  166.3356 F       1  UNL1       -0.1659
     23 F         137.6268  139.4998  167.5545 F       1  UNL1       -0.1659
     24 C         139.8183  143.0274  164.6314 C.2     1  UNL1        0.0990
     25 N         139.1021  141.9905  163.8179 N.2     1  UNL1       -0.2438
     26 C         140.5927  142.6213  165.8502 C.ar    1  UNL1        0.0252
     27 C         141.9193  141.9371  165.7024 C.ar    1  UNL1        0.0020
     28 C         142.6937  141.5310  166.9212 C.ar    1  UNL1        0.0064
     29 C         142.1414  141.8091  168.2877 C.ar    1  UNL1        0.0753
     30 C         140.8147  142.4933  168.4355 C.ar    1  UNL1        0.2901
     31 C         140.0404  142.8994  167.2168 C.ar    1  UNL1        0.0768
     32 N         140.2624  142.7715  169.8022 N.pl3   1  UNL1        0.0809
     33 O         139.8858  141.6340  170.7046 O.2     1  UNL1        0.0415
     34 O         140.0868  144.1869  170.2664 O.co2   1  UNL1       -0.5760
@<TRIPOS>UNITY_ATOM_ATTR
32 1
charge 1
34 1
charge -1
@<TRIPOS>BOND
     1    24    25    2
     2    25     1    1
     3     1     2   ar
     4     2     3   ar
     5     3    20    1
     6    20    21    1
     7    20    22    1
     8    20    23    1
     9     3     4   ar
    10     4     5   ar
    11     5     6   ar
    12     6     7   ar
    13     7     8   ar
    14     8    11    1
    15    11    12    1
    16    12    13    2
    17    13    14    1
    18    14    15   am
    19    15    16    1
    20    15    17    2
    21    14    18    1
    22    18    19    2
    23     8     9   ar
    24     9    10   ar
    25    24    26    1
    26    26    27   ar
    27    27    28   ar
    28    28    29   ar
    29    29    30   ar
    30    30    32    1
    31    32    33    2
    32    32    34    1
    33    30    31   ar
    34    10     1   ar
    35    31    26   ar
    36    10     5   ar
    37    19    11    1
@<TRIPOS>MOLECULE
*****
 34 37 0 0 0
SMALL
GASTEIGER

@<TRIPOS>ATOM
      1 C         140.5001  142.6686  165.2256 C.ar    1  UNL1        0.0827
      2 C         140.8578  142.0983  166.5660 C.ar    1  UNL1        0.0230
      3 C         142.2666  141.6652  166.8450 C.ar    1  UNL1        0.0744
      4 C         143.3176  141.8025  165.7837 C.ar    1  UNL1        0.0230
      5 C         142.9598  142.3729  164.4432 C.ar    1  UNL1        0.0828
      6 N         144.0108  142.5102  163.3818 N.ar    1  UNL1       -0.2425
      7 C         143.6531  143.0805  162.0415 C.ar    1  UNL1        0.1139
      8 C         142.2443  143.5136  161.7624 C.ar    1  UNL1        0.0750
      9 C         141.1933  143.3763  162.8238 C.ar    1  UNL1        0.0197
     10 C         141.5511  142.8059  164.1642 C.ar    1  UNL1        0.0366
     11 N         141.8866  144.0840  160.4220 N.pl3   1  UNL1       -0.2597
     12 C         142.6666  143.6846  159.2046 C.2     1  UNL1        0.0863
     13 C         142.3088  144.2550  157.8641 C.2     1  UNL1        0.0885
     14 N         141.1711  145.2247  157.7411 N.am    1  UNL1       -0.2323
     15 C         140.8133  145.7951  156.4008 C.2     1  UNL1        0.2337
     16 C         141.5933  145.3957  155.1834 C.3     1  UNL1        0.0955
     17 O         139.6756  146.7648  156.2778 O.2     1  UNL1       -0.2742
     18 C         140.3911  145.6241  158.9586 C.2     1  UNL1        0.0885
     19 C         140.7488  145.0537  160.2990 C.2     1  UNL1        0.0863
     20 C         142.6243  141.0948  168.1855 C.3     1  UNL1        0.4187
     21 F         142.9820  140.5244  169.5258 F       1  UNL1       -0.1659
     22 F         143.5496  142.2498  168.4300 F       1  UNL1       -0.1659
     23 F         141.6990  139.9399  167.9409 F       1  UNL1       -0.1659
     24 C         138.0378  142.0777  164.6440 C.2     1  UNL1        0.0990
     25 N         139.0913  143.1017  164.9466 N.2     1  UNL1       -0.2438
     26 C         138.3931  140.6205  164.6205 C.ar    1  UNL1        0.0252
     27 C         138.1969  139.7808  165.8479 C.ar    1  UNL1        0.0020
     28 C         138.5521  138.3237  165.8244 C.ar    1  UNL1        0.0064
     29 C         139.1036  137.7063  164.5736 C.ar    1  UNL1        0.0753
     30 C         139.2999  138.5460  163.3462 C.ar    1  UNL1        0.2901
     31 C         138.9447  140.0031  163.3697 C.ar    1  UNL1        0.0768
     32 N         139.8515  137.9285  162.0954 N.pl3   1  UNL1        0.0809
     33 O         141.1893  137.2505  162.1206 O.2     1  UNL1        0.0415
     34 O         139.0652  137.9891  160.8194 O.co2   1  UNL1       -0.5760
@<TRIPOS>UNITY_ATOM_ATTR
32 1
charge 1
34 1
charge -1
@<TRIPOS>BOND
     1    24    25    2
     2    25     1    1
     3     1     2   ar
     4     2     3   ar
     5     3    20    1
     6    20    21    1
     7    20    22    1
     8    20    23    1
     9     3     4   ar
    10     4     5   ar
    11     5     6   ar
    12     6     7   ar
    13     7     8   ar
    14     8    11    1
    15    11    12    1
    16    12    13    2
    17    13    14    1
    18    14    15   am
    19    15    16    1
    20    15    17    2
    21    14    18    1
    22    18    19    2
    23     8     9   ar
    24     9    10   ar
    25    24    26    1
    26    26    27   ar
    27    27    28   ar
    28    28    29   ar
    29    29    30   ar
    30    30    32    1
    31    32    33    2
    32    32    34    1
    33    30    31   ar
    34    10     1   ar
    35    31    26   ar
    36    10     5   ar
    37    19    11    1
@<TRIPOS>MOLECULE
*****
 34 37 0 0 0
SMALL
GASTEIGER

@<TRIPOS>ATOM
      1 C         140.8436  141.6582  163.7086 C.ar    1  UNL1        0.0827
      2 C         140.3120  142.6684  164.6816 C.ar    1  UNL1        0.0230
      3 C         139.0839  143.4607  164.3443 C.ar    1  UNL1        0.0744
      4 C         138.3873  143.2429  163.0338 C.ar    1  UNL1        0.0230
      5 C         138.9189  142.2327  162.0607 C.ar    1  UNL1        0.0828
      6 N         138.2224  142.0149  160.7502 N.ar    1  UNL1       -0.2425
      7 C         138.7540  141.0047  159.7771 C.ar    1  UNL1        0.1139
      8 C         139.9821  140.2123  160.1145 C.ar    1  UNL1        0.0750
      9 C         140.6787  140.4302  161.4250 C.ar    1  UNL1        0.0197
     10 C         140.1471  141.4403  162.3980 C.ar    1  UNL1        0.0366
     11 N         140.5137  139.2021  159.1414 N.pl3   1  UNL1       -0.2597
     12 C         141.9460  138.7641  159.2224 C.2     1  UNL1        0.0863
     13 C         142.4776  137.7539  158.2493 C.2     1  UNL1        0.0885
     14 N         141.5768  137.1818  157.1951 N.am    1  UNL1       -0.2323
     15 C         142.1084  136.1716  156.2220 C.2     1  UNL1        0.2337
     16 C         143.5406  135.7335  156.3031 C.3     1  UNL1        0.0955
     17 O         141.2076  135.5995  155.1678 O.2     1  UNL1       -0.2742
     18 C         140.1445  137.6199  157.1141 C.2     1  UNL1        0.0885
     19 C         139.6130  138.6300  158.0872 C.2     1  UNL1        0.0863
     20 C         138.5523  144.4709  165.3174 C.3     1  UNL1        0.4187
     21 F         138.0207  145.4811  166.2905 F       1  UNL1       -0.1659
     22 F         137.3945  144.7425  164.4032 F       1  UNL1       -0.1659
     23 F         139.7100  144.1994  166.2316 F       1  UNL1       -0.1659
     24 C         142.0184  139.8210  165.1208 C.2     1  UNL1        0.0990
     25 N         142.0718  140.8659  164.0460 N.2     1  UNL1       -0.2438
     26 C         140.7369  139.5684  165.8583 C.ar    1  UNL1        0.0252
     27 C         139.6394  138.7802  165.2069 C.ar    1  UNL1        0.0020
     28 C         138.3579  138.5276  165.9443 C.ar    1  UNL1        0.0064
     29 C         138.1738  139.0633  167.3333 C.ar    1  UNL1        0.0753
     30 C         139.2712  139.8515  167.9847 C.ar    1  UNL1        0.2901
     31 C         140.5528  140.1041  167.2473 C.ar    1  UNL1        0.0768
     32 N         139.0871  140.3871  169.3737 N.pl3   1  UNL1        0.0809
     33 O         138.0517  139.7867  170.2779 O.2     1  UNL1        0.0415
     34 O         139.9383  141.5231  169.8585 O.co2   1  UNL1       -0.5760
@<TRIPOS>UNITY_ATOM_ATTR
32 1
charge 1
34 1
charge -1
@<TRIPOS>BOND
     1    24    25    2
     2    25     1    1
     3     1     2   ar
     4     2     3   ar
     5     3    20    1
     6    20    21    1
     7    20    22    1
     8    20    23    1
     9     3     4   ar
    10     4     5   ar
    11     5     6   ar
    12     6     7   ar
    13     7     8   ar
    14     8    11    1
    15    11    12    1
    16    12    13    2
    17    13    14    1
    18    14    15   am
    19    15    16    1
    20    15    17    2
    21    14    18    1
    22    18    19    2
    23     8     9   ar
    24     9    10   ar
    25    24    26    1
    26    26    27   ar
    27    27    28   ar
    28    28    29   ar
    29    29    30   ar
    30    30    32    1
    31    32    33    2
    32    32    34    1
    33    30    31   ar
    34    10     1   ar
    35    31    26   ar
    36    10     5   ar
    37    19    11    1
@<TRIPOS>MOLECULE
*****
 34 37 0 0 0
SMALL
GASTEIGER

@<TRIPOS>ATOM
      1 C         141.3581  139.5844  164.1215 C.ar    1  UNL1        0.0827
      2 C         140.4315  139.2989  165.2660 C.ar    1  UNL1        0.0230
      3 C         139.1078  138.6402  165.0129 C.ar    1  UNL1        0.0744
      4 C         138.7107  138.2671  163.6154 C.ar    1  UNL1        0.0230
      5 C         139.6374  138.5526  162.4709 C.ar    1  UNL1        0.0828
      6 N         139.2403  138.1795  161.0734 N.ar    1  UNL1       -0.2425
      7 C         140.1669  138.4650  159.9289 C.ar    1  UNL1        0.1139
      8 C         141.4906  139.1236  160.1820 C.ar    1  UNL1        0.0750
      9 C         141.8877  139.4968  161.5795 C.ar    1  UNL1        0.0197
     10 C         140.9611  139.2113  162.7239 C.ar    1  UNL1        0.0366
     11 N         142.4173  139.4091  159.0375 N.pl3   1  UNL1       -0.2597
     12 C         143.3972  140.5409  159.1302 C.2     1  UNL1        0.0863
     13 C         144.3239  140.8264  157.9857 C.2     1  UNL1        0.0885
     14 N         144.2705  139.9801  156.7484 N.am    1  UNL1       -0.2323
     15 C         145.1971  140.2655  155.6039 C.2     1  UNL1        0.2337
     16 C         146.1770  141.3973  155.6967 C.3     1  UNL1        0.0955
     17 O         145.1437  139.4192  154.3667 O.2     1  UNL1       -0.2742
     18 C         143.2905  138.8482  156.6557 C.2     1  UNL1        0.0885
     19 C         142.3639  138.5628  157.8002 C.2     1  UNL1        0.0863
     20 C         138.1811  138.3547  166.1575 C.3     1  UNL1        0.4187
     21 F         137.2545  138.0693  167.3019 F       1  UNL1       -0.1659
     22 F         138.2477  136.8890  165.8458 F       1  UNL1       -0.1659
     23 F         138.1146  139.8205  166.4692 F       1  UNL1       -0.1659
     24 C         142.7500  141.7223  164.6135 C.2     1  UNL1        0.0990
     25 N         142.6818  140.2430  164.3746 N.2     1  UNL1       -0.2438
     26 C         141.4944  142.5430  164.5994 C.ar    1  UNL1        0.0252
     27 C         140.7841  142.8492  165.8845 C.ar    1  UNL1        0.0020
     28 C         139.5286  143.6698  165.8705 C.ar    1  UNL1        0.0064
     29 C         138.9834  144.1843  164.5712 C.ar    1  UNL1        0.0753
     30 C         139.6938  143.8780  163.2860 C.ar    1  UNL1        0.2901
     31 C         140.9493  143.0574  163.3001 C.ar    1  UNL1        0.0768
     32 N         139.1486  144.3925  161.9867 N.pl3   1  UNL1        0.0809
     33 O         139.2441  145.8532  161.6592 O.2     1  UNL1        0.0415
     34 O         138.5078  143.4463  161.0151 O.co2   1  UNL1       -0.5760
@<TRIPOS>UNITY_ATOM_ATTR
32 1
charge 1
34 1
charge -1
@<TRIPOS>BOND
     1    24    25    2
     2    25     1    1
     3     1     2   ar
     4     2     3   ar
     5     3    20    1
     6    20    21    1
     7    20    22    1
     8    20    23    1
     9     3     4   ar
    10     4     5   ar
    11     5     6   ar
    12     6     7   ar
    13     7     8   ar
    14     8    11    1
    15    11    12    1
    16    12    13    2
    17    13    14    1
    18    14    15   am
    19    15    16    1
    20    15    17    2
    21    14    18    1
    22    18    19    2
    23     8     9   ar
    24     9    10   ar
    25    24    26    1
    26    26    27   ar
    27    27    28   ar
    28    28    29   ar
    29    29    30   ar
    30    30    32    1
    31    32    33    2
    32    32    34    1
    33    30    31   ar
    34    10     1   ar
    35    31    26   ar
    36    10     5   ar
    37    19    11    1
@<TRIPOS>MOLECULE
*****
 34 37 0 0 0
SMALL
GASTEIGER

@<TRIPOS>ATOM
      1 C         139.5480  140.6673  164.7634 C.ar    1  UNL1        0.0827
      2 C         139.6149  140.4099  166.2396 C.ar    1  UNL1        0.0230
      3 C         139.9630  141.5252  167.1804 C.ar    1  UNL1        0.0744
      4 C         140.2444  142.8978  166.6449 C.ar    1  UNL1        0.0230
      5 C         140.1776  143.1552  165.1686 C.ar    1  UNL1        0.0828
      6 N         140.4589  144.5278  164.6332 N.ar    1  UNL1       -0.2425
      7 C         140.3921  144.7852  163.1570 C.ar    1  UNL1        0.1139
      8 C         140.0439  143.6699  162.2162 C.ar    1  UNL1        0.0750
      9 C         139.7626  142.2973  162.7517 C.ar    1  UNL1        0.0197
     10 C         139.8294  142.0399  164.2279 C.ar    1  UNL1        0.0366
     11 N         139.9771  143.9273  160.7399 N.pl3   1  UNL1       -0.2597
     12 C         140.5296  145.2024  160.1752 C.2     1  UNL1        0.0863
     13 C         140.4628  145.4598  158.6989 C.2     1  UNL1        0.0885
     14 N         139.8435  144.4421  157.7874 N.am    1  UNL1       -0.2323
     15 C         139.7766  144.6995  156.3112 C.2     1  UNL1        0.2337
     16 C         140.3291  145.9746  155.7465 C.3     1  UNL1        0.0955
     17 O         139.1573  143.6818  155.3997 O.2     1  UNL1       -0.2742
     18 C         139.2910  143.1670  158.3522 C.2     1  UNL1        0.0885
     19 C         139.3578  142.9097  159.8284 C.2     1  UNL1        0.0863
     20 C         140.0298  141.2677  168.6567 C.3     1  UNL1        0.4187
     21 F         140.0967  141.0104  170.1329 F       1  UNL1       -0.1659
     22 F         139.6936  139.8251  168.4204 F       1  UNL1       -0.1659
     23 F         140.3660  142.7103  168.8929 F       1  UNL1       -0.1659
     24 C         140.2643  138.6025  163.3585 C.2     1  UNL1        0.0990
     25 N         139.1999  139.5520  163.8226 N.2     1  UNL1       -0.2438
     26 C         141.6769  138.7682  163.8351 C.ar    1  UNL1        0.0252
     27 C         142.6988  139.4095  162.9437 C.ar    1  UNL1        0.0020
     28 C         144.1114  139.5752  163.4202 C.ar    1  UNL1        0.0064
     29 C         144.5020  139.0997  164.7882 C.ar    1  UNL1        0.0753
     30 C         143.4801  138.4584  165.6795 C.ar    1  UNL1        0.2901
     31 C         142.0676  138.2927  165.2030 C.ar    1  UNL1        0.0768
     32 N         143.8709  137.9829  167.0475 N.pl3   1  UNL1        0.0809
     33 O         143.2689  138.6217  168.2639 O.2     1  UNL1        0.0415
     34 O         144.8635  136.8686  167.1990 O.co2   1  UNL1       -0.5760
@<TRIPOS>UNITY_ATOM_ATTR
32 1
charge 1
34 1
charge -1
@<TRIPOS>BOND
     1    24    25    2
     2    25     1    1
     3     1     2   ar
     4     2     3   ar
     5     3    20    1
     6    20    21    1
     7    20    22    1
     8    20    23    1
     9     3     4   ar
    10     4     5   ar
    11     5     6   ar
    12     6     7   ar
    13     7     8   ar
    14     8    11    1
    15    11    12    1
    16    12    13    2
    17    13    14    1
    18    14    15   am
    19    15    16    1
    20    15    17    2
    21    14    18    1
    22    18    19    2
    23     8     9   ar
    24     9    10   ar
    25    24    26    1
    26    26    27   ar
    27    27    28   ar
    28    28    29   ar
    29    29    30   ar
    30    30    32    1
    31    32    33    2
    32    32    34    1
    33    30    31   ar
    34    10     1   ar
    35    31    26   ar
    36    10     5   ar
    37    19    11    1
@<TRIPOS>MOLECULE
*****
 34 37 0 0 0
SMALL
GASTEIGER

@<TRIPOS>ATOM
      1 C         138.8600  139.9822  164.0370 C.ar    1  UNL1        0.0827
      2 C         138.4457  140.0286  165.4779 C.ar    1  UNL1        0.0230
      3 C         139.4557  139.7736  166.5573 C.ar    1  UNL1        0.0744
      4 C         140.8799  139.4723  166.1958 C.ar    1  UNL1        0.0230
      5 C         141.2942  139.4259  164.7548 C.ar    1  UNL1        0.0828
      6 N         142.7185  139.1245  164.3933 N.ar    1  UNL1       -0.2425
      7 C         143.1327  139.0782  162.9524 C.ar    1  UNL1        0.1139
      8 C         142.1228  139.3331  161.8731 C.ar    1  UNL1        0.0750
      9 C         140.6986  139.6345  162.2346 C.ar    1  UNL1        0.0197
     10 C         140.2843  139.6809  163.6755 C.ar    1  UNL1        0.0366
     11 N         142.5371  139.2868  160.4321 N.pl3   1  UNL1       -0.2597
     12 C         143.3524  140.4031  159.8499 C.2     1  UNL1        0.0863
     13 C         143.7668  140.3567  158.4089 C.2     1  UNL1        0.0885
     14 N         143.3658  139.1940  157.5503 N.am    1  UNL1       -0.2323
     15 C         143.7801  139.1476  156.1094 C.2     1  UNL1        0.2337
     16 C         144.5954  140.2639  155.5272 C.3     1  UNL1        0.0955
     17 O         143.3791  137.9848  155.2508 O.2     1  UNL1       -0.2742
     18 C         142.5505  138.0776  158.1326 C.2     1  UNL1        0.0885
     19 C         142.1362  138.1240  159.5735 C.2     1  UNL1        0.0863
     20 C         139.0413  139.8200  167.9982 C.3     1  UNL1        0.4187
     21 F         138.6270  139.8664  169.4391 F       1  UNL1       -0.1659
     22 F         137.8587  138.9517  167.6862 F       1  UNL1       -0.1659
     23 F         140.2239  140.6883  168.3103 F       1  UNL1       -0.1659
     24 C         137.6067  141.6359  162.4736 C.2     1  UNL1        0.0990
     25 N         137.8501  140.2372  162.9577 N.2     1  UNL1       -0.2438
     26 C         138.3732  142.7797  163.0688 C.ar    1  UNL1        0.0252
     27 C         137.8400  143.4922  164.2763 C.ar    1  UNL1        0.0020
     28 C         138.6065  144.6359  164.8716 C.ar    1  UNL1        0.0064
     29 C         139.9062  145.0671  164.2593 C.ar    1  UNL1        0.0753
     30 C         140.4394  144.3546  163.0519 C.ar    1  UNL1        0.2901
     31 C         139.6729  143.2109  162.4566 C.ar    1  UNL1        0.0768
     32 N         141.7391  144.7859  162.4396 N.pl3   1  UNL1        0.0809
     33 O         142.8842  145.1922  163.3192 O.2     1  UNL1        0.0415
     34 O         141.8937  144.8108  160.9479 O.co2   1  UNL1       -0.5760
@<TRIPOS>UNITY_ATOM_ATTR
32 1
charge 1
34 1
charge -1
@<TRIPOS>BOND
     1    24    25    2
     2    25     1    1
     3     1     2   ar
     4     2     3   ar
     5     3    20    1
     6    20    21    1
     7    20    22    1
     8    20    23    1
     9     3     4   ar
    10     4     5   ar
    11     5     6   ar
    12     6     7   ar
    13     7     8   ar
    14     8    11    1
    15    11    12    1
    16    12    13    2
    17    13    14    1
    18    14    15   am
    19    15    16    1
    20    15    17    2
    21    14    18    1
    22    18    19    2
    23     8     9   ar
    24     9    10   ar
    25    24    26    1
    26    26    27   ar
    27    27    28   ar
    28    28    29   ar
    29    29    30   ar
    30    30    32    1
    31    32    33    2
    32    32    34    1
    33    30    31   ar
    34    10     1   ar
    35    31    26   ar
    36    10     5   ar
    37    19    11    1
@<TRIPOS>MOLECULE
*****
 34 37 0 0 0
SMALL
GASTEIGER

@<TRIPOS>ATOM
      1 C         138.6152  140.3282  163.7411 C.ar    1  UNL1        0.0827
      2 C         138.4827  140.5471  165.2191 C.ar    1  UNL1        0.0230
      3 C         139.5035  139.9735  166.1567 C.ar    1  UNL1        0.0744
      4 C         140.6567  139.1810  165.6163 C.ar    1  UNL1        0.0230
      5 C         140.7892  138.9621  164.1382 C.ar    1  UNL1        0.0828
      6 N         141.9424  138.1697  163.5978 N.ar    1  UNL1       -0.2425
      7 C         142.0748  137.9508  162.1198 C.ar    1  UNL1        0.1139
      8 C         141.0541  138.5244  161.1822 C.ar    1  UNL1        0.0750
      9 C         139.9009  139.3168  161.7226 C.ar    1  UNL1        0.0197
     10 C         139.7684  139.5357  163.2006 C.ar    1  UNL1        0.0366
     11 N         141.1866  138.3054  159.7042 N.pl3   1  UNL1       -0.2597
     12 C         139.9756  138.3848  158.8227 C.2     1  UNL1        0.0863
     13 C         140.1081  138.1659  157.3446 C.2     1  UNL1        0.0885
     14 N         141.4516  137.8676  156.7481 N.am    1  UNL1       -0.2323
     15 C         141.5842  137.6487  155.2702 C.2     1  UNL1        0.2337
     16 C         140.3731  137.7280  154.3887 C.3     1  UNL1        0.0955
     17 O         142.9278  137.3504  154.6737 O.2     1  UNL1       -0.2742
     18 C         142.6627  137.7882  157.6297 C.2     1  UNL1        0.0885
     19 C         142.5302  138.0071  159.1077 C.2     1  UNL1        0.0863
     20 C         139.3710  140.1924  167.6347 C.3     1  UNL1        0.4187
     21 F         139.2385  140.4114  169.1127 F       1  UNL1       -0.1659
     22 F         138.3447  139.1007  167.7045 F       1  UNL1       -0.1659
     23 F         140.3973  141.2841  167.5650 F       1  UNL1       -0.1659
     24 C         137.6906  142.3364  162.3765 C.2     1  UNL1        0.0990
     25 N         137.5944  140.9018  162.8035 N.2     1  UNL1       -0.2438
     26 C         138.8077  143.1976  162.8871 C.ar    1  UNL1        0.0252
     27 C         138.6727  143.8961  164.2077 C.ar    1  UNL1        0.0020
     28 C         139.7896  144.7572  164.7184 C.ar    1  UNL1        0.0064
     29 C         141.0416  144.9200  163.9084 C.ar    1  UNL1        0.0753
     30 C         141.1766  144.2215  162.5878 C.ar    1  UNL1        0.2901
     31 C         140.0596  143.3604  162.0772 C.ar    1  UNL1        0.0768
     32 N         142.4286  144.3843  161.7778 N.pl3   1  UNL1        0.0809
     33 O         143.7486  144.5678  162.4662 O.2     1  UNL1        0.0415
     34 O         142.3606  144.3636  160.2795 O.co2   1  UNL1       -0.5760
@<TRIPOS>UNITY_ATOM_ATTR
32 1
charge 1
34 1
charge -1
@<TRIPOS>BOND
     1    24    25    2
     2    25     1    1
     3     1     2   ar
     4     2     3   ar
     5     3    20    1
     6    20    21    1
     7    20    22    1
     8    20    23    1
     9     3     4   ar
    10     4     5   ar
    11     5     6   ar
    12     6     7   ar
    13     7     8   ar
    14     8    11    1
    15    11    12    1
    16    12    13    2
    17    13    14    1
    18    14    15   am
    19    15    16    1
    20    15    17    2
    21    14    18    1
    22    18    19    2
    23     8     9   ar
    24     9    10   ar
    25    24    26    1
    26    26    27   ar
    27    27    28   ar
    28    28    29   ar
    29    29    30   ar
    30    30    32    1
    31    32    33    2
    32    32    34    1
    33    30    31   ar
    34    10     1   ar
    35    31    26   ar
    36    10     5   ar
    37    19    11    1
@<TRIPOS>MOLECULE
*****
 34 37 0 0 0
SMALL
GASTEIGER

@<TRIPOS>ATOM
      1 C         143.0802  142.5372  165.6033 C.ar    1  UNL1        0.0827
      2 C         143.1932  142.2599  167.0731 C.ar    1  UNL1        0.0230
      3 C         141.9877  142.3917  167.9560 C.ar    1  UNL1        0.0744
      4 C         140.6693  142.8007  167.3692 C.ar    1  UNL1        0.0230
      5 C         140.5563  143.0780  165.8993 C.ar    1  UNL1        0.0828
      6 N         139.2379  143.4871  165.3125 N.ar    1  UNL1       -0.2425
      7 C         139.1249  143.7643  163.8427 C.ar    1  UNL1        0.1139
      8 C         140.3304  143.6325  162.9598 C.ar    1  UNL1        0.0750
      9 C         141.6488  143.2235  163.5466 C.ar    1  UNL1        0.0197
     10 C         141.7617  142.9462  165.0164 C.ar    1  UNL1        0.0366
     11 N         140.2173  143.9098  161.4899 N.pl3   1  UNL1       -0.2597
     12 C         140.8198  145.1566  160.9134 C.2     1  UNL1        0.0863
     13 C         140.7068  145.4339  159.4435 C.2     1  UNL1        0.0885
     14 N         139.9912  144.4643  158.5503 N.am    1  UNL1       -0.2323
     15 C         139.8782  144.7416  157.0805 C.2     1  UNL1        0.2337
     16 C         140.4807  145.9884  156.5039 C.3     1  UNL1        0.0955
     17 O         139.1627  143.7720  156.1872 O.2     1  UNL1       -0.2742
     18 C         139.3887  143.2175  159.1268 C.2     1  UNL1        0.0885
     19 C         139.5018  142.9402  160.5966 C.2     1  UNL1        0.0863
     20 C         142.1008  142.1144  169.4259 C.3     1  UNL1        0.4187
     21 F         142.2138  141.8372  170.8957 F       1  UNL1       -0.1659
     22 F         142.9226  140.8943  169.1326 F       1  UNL1       -0.1659
     23 F         141.2790  143.3345  169.7192 F       1  UNL1       -0.1659
     24 C         144.5641  141.1086  164.0200 C.2     1  UNL1        0.0990
     25 N         144.2856  142.4054  164.7204 N.2     1  UNL1       -0.2438
     26 C         143.6372  139.9434  164.2025 C.ar    1  UNL1        0.0252
     27 C         143.6863  139.1368  165.4662 C.ar    1  UNL1        0.0020
     28 C         142.7594  137.9717  165.6488 C.ar    1  UNL1        0.0064
     29 C         141.7834  137.6132  164.5676 C.ar    1  UNL1        0.0753
     30 C         141.7343  138.4199  163.3039 C.ar    1  UNL1        0.2901
     31 C         142.6612  139.5850  163.1214 C.ar    1  UNL1        0.0768
     32 N         140.7582  138.0613  162.2228 N.pl3   1  UNL1        0.0809
     33 O         141.1592  138.1767  160.7820 O.2     1  UNL1        0.0415
     34 O         139.3813  137.5874  162.5824 O.co2   1  UNL1       -0.5760
@<TRIPOS>UNITY_ATOM_ATTR
32 1
charge 1
34 1
charge -1
@<TRIPOS>BOND
     1    24    25    2
     2    25     1    1
     3     1     2   ar
     4     2     3   ar
     5     3    20    1
     6    20    21    1
     7    20    22    1
     8    20    23    1
     9     3     4   ar
    10     4     5   ar
    11     5     6   ar
    12     6     7   ar
    13     7     8   ar
    14     8    11    1
    15    11    12    1
    16    12    13    2
    17    13    14    1
    18    14    15   am
    19    15    16    1
    20    15    17    2
    21    14    18    1
    22    18    19    2
    23     8     9   ar
    24     9    10   ar
    25    24    26    1
    26    26    27   ar
    27    27    28   ar
    28    28    29   ar
    29    29    30   ar
    30    30    32    1
    31    32    33    2
    32    32    34    1
    33    30    31   ar
    34    10     1   ar
    35    31    26   ar
    36    10     5   ar
    37    19    11    1
