@<TRIPOS>MOLECULE
*****
 28 32 0 0 0
SMALL
GASTEIGER

@<TRIPOS>ATOM
      1 C         141.2458  138.8284  163.6932 C.ar    1  UNL1        0.0878
      2 C         140.4925  138.0019  162.6934 C.ar    1  UNL1        0.0091
      3 C         139.1196  137.4947  163.0219 C.ar    1  UNL1        0.0194
      4 C         138.5000  137.8139  164.3501 C.ar    1  UNL1        0.0844
      5 N         139.2533  138.6404  165.3499 N.ar    1  UNL1       -0.2576
      6 C         138.6337  138.9596  166.6781 C.ar    1  UNL1        0.2672
      7 O         137.2608  138.4524  167.0066 O.2     1  UNL1       -0.2665
      8 C         139.3870  139.7861  167.6779 C.ar    1  UNL1        0.0742
      9 C         138.7675  140.1054  169.0061 C.ar    1  UNL1        0.0063
     10 C         139.5207  140.9319  170.0058 C.ar    1  UNL1        0.0003
     11 C         140.8937  141.4391  169.6773 C.ar    1  UNL1        0.0015
     12 C         141.6469  142.2656  170.6771 C.ar    1  UNL1        0.0000
     13 C         143.0198  142.7728  170.3486 C.ar    1  UNL1        0.0000
     14 C         143.6394  142.4535  169.0203 C.ar    1  UNL1        0.0000
     15 C         142.8861  141.6271  168.0206 C.ar    1  UNL1        0.0015
     16 C         141.5132  141.1199  168.3491 C.ar    1  UNL1        0.0179
     17 C         140.7599  140.2934  167.3494 C.ar    1  UNL1        0.0875
     18 N         141.3795  139.9741  166.0211 N.ar    1  UNL1       -0.2276
     19 C         140.6262  139.1477  165.0214 C.ar    1  UNL1        0.1543
     20 O         143.6472  138.4025  162.7976 O.2     1  UNL1       -0.2700
     21 C         142.6187  139.3356  163.3647 C.2     1  UNL1        0.2488
     22 N         142.9631  140.7759  163.6032 N.am    1  UNL1       -0.2997
     23 H         142.2881  141.3884  163.9754 H       1  UNL1        0.1498
     24 C         144.3360  141.2831  163.2747 C.3     1  UNL1        0.1032
     25 C         144.9523  141.9960  162.1076 C.3     1  UNL1        0.0898
     26 N         146.2776  142.0003  162.8102 N.3     1  UNL1       -0.2946
     27 C         145.6613  141.2874  163.9772 C.3     1  UNL1        0.0898
     28 H         146.6294  142.9322  163.0299 H       1  UNL1        0.1233
@<TRIPOS>BOND
     1    20    21    2
     2    21    22   am
     3    22    24    1
     4    24    25    1
     5    25    26    1
     6    26    27    1
     7    21     1    1
     8     1     2   ar
     9     2     3   ar
    10     3     4   ar
    11     4     5   ar
    12     5     6   ar
    13     6     7    2
    14     6     8   ar
    15     8     9   ar
    16     9    10   ar
    17    10    11   ar
    18    11    12   ar
    19    12    13   ar
    20    13    14   ar
    21    14    15   ar
    22    15    16   ar
    23    16    17   ar
    24    17    18   ar
    25    18    19   ar
    26    27    24    1
    27    19     1   ar
    28    19     5   ar
    29    17     8   ar
    30    16    11   ar
    31    22    23    1
    32    26    28    1
@<TRIPOS>MOLECULE
*****
 28 32 0 0 0
SMALL
GASTEIGER

@<TRIPOS>ATOM
      1 C         142.7923  141.4880  163.4188 C.ar    1  UNL1        0.0878
      2 C         143.4554  140.7927  162.2668 C.ar    1  UNL1        0.0091
      3 C         144.0975  139.4523  162.4687 C.ar    1  UNL1        0.0194
      4 C         144.0767  138.8071  163.8227 C.ar    1  UNL1        0.0844
      5 N         143.4137  139.5022  164.9747 N.ar    1  UNL1       -0.2576
      6 C         143.3929  138.8570  166.3287 C.ar    1  UNL1        0.2672
      7 O         144.0351  137.5166  166.5306 O.2     1  UNL1       -0.2665
      8 C         142.7299  139.5523  167.4807 C.ar    1  UNL1        0.0742
      9 C         142.7090  138.9070  168.8347 C.ar    1  UNL1        0.0063
     10 C         142.0460  139.6022  169.9866 C.ar    1  UNL1        0.0003
     11 C         141.4038  140.9427  169.7847 C.ar    1  UNL1        0.0015
     12 C         140.7408  141.6379  170.9367 C.ar    1  UNL1        0.0000
     13 C         140.0987  142.9783  170.7347 C.ar    1  UNL1        0.0000
     14 C         140.1195  143.6235  169.3807 C.ar    1  UNL1        0.0000
     15 C         140.7825  142.9284  168.2287 C.ar    1  UNL1        0.0015
     16 C         141.4246  141.5879  168.4307 C.ar    1  UNL1        0.0179
     17 C         142.0877  140.8927  167.2787 C.ar    1  UNL1        0.0875
     18 N         142.1085  141.5379  165.9247 N.ar    1  UNL1       -0.2276
     19 C         142.7715  140.8427  164.7727 C.ar    1  UNL1        0.1543
     20 O         142.6804  144.0307  163.9402 O.2     1  UNL1       -0.2700
     21 C         142.1502  142.8284  163.2168 C.2     1  UNL1        0.2488
     22 N         140.9778  142.9666  162.2914 N.am    1  UNL1       -0.2997
     23 H         140.6297  142.1775  161.8166 H       1  UNL1        0.1498
     24 C         140.3356  144.3071  162.0894 C.3     1  UNL1        0.1032
     25 C         140.4185  145.3756  161.0400 C.3     1  UNL1        0.0898
     26 N         139.4274  146.2028  161.8039 N.3     1  UNL1       -0.2946
     27 C         139.3445  145.1342  162.8533 C.3     1  UNL1        0.0898
     28 H         138.5519  146.3675  161.3072 H       1  UNL1        0.1233
@<TRIPOS>BOND
     1    20    21    2
     2    21    22   am
     3    22    24    1
     4    24    25    1
     5    25    26    1
     6    26    27    1
     7    21     1    1
     8     1     2   ar
     9     2     3   ar
    10     3     4   ar
    11     4     5   ar
    12     5     6   ar
    13     6     7    2
    14     6     8   ar
    15     8     9   ar
    16     9    10   ar
    17    10    11   ar
    18    11    12   ar
    19    12    13   ar
    20    13    14   ar
    21    14    15   ar
    22    15    16   ar
    23    16    17   ar
    24    17    18   ar
    25    18    19   ar
    26    27    24    1
    27    19     1   ar
    28    19     5   ar
    29    17     8   ar
    30    16    11   ar
    31    22    23    1
    32    26    28    1
@<TRIPOS>MOLECULE
*****
 28 32 0 0 0
SMALL
GASTEIGER

@<TRIPOS>ATOM
      1 C         139.5705  140.0667  167.7710 C.ar    1  UNL1        0.0878
      2 C         138.3119  139.4242  168.2744 C.ar    1  UNL1        0.0091
      3 C         137.5601  138.4627  167.4025 C.ar    1  UNL1        0.0194
      4 C         138.0668  138.1435  166.0272 C.ar    1  UNL1        0.0844
      5 N         139.3253  138.7860  165.5238 N.ar    1  UNL1       -0.2576
      6 C         139.8320  138.4668  164.1485 C.ar    1  UNL1        0.2672
      7 O         139.0802  137.5053  163.2766 O.2     1  UNL1       -0.2665
      8 C         141.0905  139.1093  163.6451 C.ar    1  UNL1        0.0742
      9 C         141.5972  138.7902  162.2698 C.ar    1  UNL1        0.0063
     10 C         142.8556  139.4326  161.7663 C.ar    1  UNL1        0.0003
     11 C         143.6075  140.3942  162.6382 C.ar    1  UNL1        0.0015
     12 C         144.8660  141.0366  162.1348 C.ar    1  UNL1        0.0000
     13 C         145.6178  141.9982  163.0066 C.ar    1  UNL1        0.0000
     14 C         145.1111  142.3173  164.3819 C.ar    1  UNL1        0.0000
     15 C         143.8527  141.6749  164.8854 C.ar    1  UNL1        0.0015
     16 C         143.1009  140.7133  164.0135 C.ar    1  UNL1        0.0179
     17 C         141.8423  140.0709  164.5169 C.ar    1  UNL1        0.0875
     18 N         141.3356  140.3900  165.8922 N.ar    1  UNL1       -0.2276
     19 C         140.0772  139.7476  166.3957 C.ar    1  UNL1        0.1543
     20 O         139.5765  141.9336  169.5778 O.2     1  UNL1       -0.2700
     21 C         140.3223  141.0282  168.6428 C.2     1  UNL1        0.2488
     22 N         141.8199  141.0845  168.5797 N.am    1  UNL1       -0.2997
     23 H         142.3094  140.4903  167.9661 H       1  UNL1        0.1498
     24 C         142.5717  142.0461  169.4517 C.3     1  UNL1        0.1032
     25 C         142.1893  143.1832  170.3521 C.3     1  UNL1        0.0898
     26 N         143.6350  143.4059  170.6847 N.3     1  UNL1       -0.2946
     27 C         144.0173  142.2688  169.7843 C.3     1  UNL1        0.0898
     28 H         143.8644  143.2546  171.6670 H       1  UNL1        0.1233
@<TRIPOS>BOND
     1    20    21    2
     2    21    22   am
     3    22    24    1
     4    24    25    1
     5    25    26    1
     6    26    27    1
     7    21     1    1
     8     1     2   ar
     9     2     3   ar
    10     3     4   ar
    11     4     5   ar
    12     5     6   ar
    13     6     7    2
    14     6     8   ar
    15     8     9   ar
    16     9    10   ar
    17    10    11   ar
    18    11    12   ar
    19    12    13   ar
    20    13    14   ar
    21    14    15   ar
    22    15    16   ar
    23    16    17   ar
    24    17    18   ar
    25    18    19   ar
    26    27    24    1
    27    19     1   ar
    28    19     5   ar
    29    17     8   ar
    30    16    11   ar
    31    22    23    1
    32    26    28    1
@<TRIPOS>MOLECULE
*****
 28 32 0 0 0
SMALL
GASTEIGER

@<TRIPOS>ATOM
      1 C         139.5233  140.3361  167.6165 C.ar    1  UNL1        0.0878
      2 C         138.4995  139.3454  168.0863 C.ar    1  UNL1        0.0091
      3 C         137.7580  138.5038  167.0904 C.ar    1  UNL1        0.0194
      4 C         138.0401  138.6528  165.6248 C.ar    1  UNL1        0.0844
      5 N         139.0638  139.6433  165.1549 N.ar    1  UNL1       -0.2576
      6 C         139.3460  139.7923  163.6892 C.ar    1  UNL1        0.2672
      7 O         138.6044  138.9507  162.6934 O.2     1  UNL1       -0.2665
      8 C         140.3697  140.7829  163.2194 C.ar    1  UNL1        0.0742
      9 C         140.6518  140.9319  161.7537 C.ar    1  UNL1        0.0063
     10 C         141.6755  141.9225  161.2839 C.ar    1  UNL1        0.0003
     11 C         142.4171  142.7642  162.2798 C.ar    1  UNL1        0.0015
     12 C         143.4408  143.7547  161.8099 C.ar    1  UNL1        0.0000
     13 C         144.1823  144.5964  162.8058 C.ar    1  UNL1        0.0000
     14 C         143.9002  144.4474  164.2714 C.ar    1  UNL1        0.0000
     15 C         142.8765  143.4568  164.7413 C.ar    1  UNL1        0.0015
     16 C         142.1350  142.6152  163.7454 C.ar    1  UNL1        0.0179
     17 C         141.1112  141.6246  164.2153 C.ar    1  UNL1        0.0875
     18 N         140.8291  141.4756  165.6809 N.ar    1  UNL1       -0.2276
     19 C         139.8054  140.4850  166.1508 C.ar    1  UNL1        0.1543
     20 O         139.5472  141.7338  169.8064 O.2     1  UNL1       -0.2700
     21 C         140.2648  141.1777  168.6123 C.2     1  UNL1        0.2488
     22 N         141.7240  141.4632  168.4141 N.am    1  UNL1       -0.2997
     23 H         142.1950  141.0982  167.6304 H       1  UNL1        0.1498
     24 C         142.4655  142.3049  169.4101 C.3     1  UNL1        0.1032
     25 C         143.8770  142.3540  169.9152 C.3     1  UNL1        0.0898
     26 N         143.5141  143.4952  170.8185 N.3     1  UNL1       -0.2946
     27 C         142.1026  143.4462  170.3133 C.3     1  UNL1        0.0898
     28 H         144.0022  144.3654  170.6066 H       1  UNL1        0.1233
@<TRIPOS>BOND
     1    20    21    2
     2    21    22   am
     3    22    24    1
     4    24    25    1
     5    25    26    1
     6    26    27    1
     7    21     1    1
     8     1     2   ar
     9     2     3   ar
    10     3     4   ar
    11     4     5   ar
    12     5     6   ar
    13     6     7    2
    14     6     8   ar
    15     8     9   ar
    16     9    10   ar
    17    10    11   ar
    18    11    12   ar
    19    12    13   ar
    20    13    14   ar
    21    14    15   ar
    22    15    16   ar
    23    16    17   ar
    24    17    18   ar
    25    18    19   ar
    26    27    24    1
    27    19     1   ar
    28    19     5   ar
    29    17     8   ar
    30    16    11   ar
    31    22    23    1
    32    26    28    1
@<TRIPOS>MOLECULE
*****
 28 32 0 0 0
SMALL
GASTEIGER

@<TRIPOS>ATOM
      1 C         141.2308  143.8475  161.2839 C.ar    1  UNL1        0.0878
      2 C         140.5424  145.0273  160.6639 C.ar    1  UNL1        0.0091
      3 C         139.6251  145.8796  161.4897 C.ar    1  UNL1        0.0194
      4 C         139.3961  145.5523  162.9355 C.ar    1  UNL1        0.0844
      5 N         140.0844  144.3726  163.5555 N.ar    1  UNL1       -0.2576
      6 C         139.8554  144.0452  165.0013 C.ar    1  UNL1        0.2672
      7 O         138.9381  144.8976  165.8271 O.2     1  UNL1       -0.2665
      8 C         140.5438  142.8654  165.6214 C.ar    1  UNL1        0.0742
      9 C         140.3148  142.5381  167.0672 C.ar    1  UNL1        0.0063
     10 C         141.0031  141.3584  167.6872 C.ar    1  UNL1        0.0003
     11 C         141.9204  140.5059  166.8614 C.ar    1  UNL1        0.0015
     12 C         142.6087  139.3262  167.4814 C.ar    1  UNL1        0.0000
     13 C         143.5260  138.4739  166.6556 C.ar    1  UNL1        0.0000
     14 C         143.7551  138.8012  165.2098 C.ar    1  UNL1        0.0000
     15 C         143.0668  139.9809  164.5898 C.ar    1  UNL1        0.0015
     16 C         142.1494  140.8333  165.4156 C.ar    1  UNL1        0.0179
     17 C         141.4611  142.0131  164.7956 C.ar    1  UNL1        0.0875
     18 N         141.6901  142.3404  163.3497 N.ar    1  UNL1       -0.2276
     19 C         141.0018  143.5201  162.7297 C.ar    1  UNL1        0.1543
     20 O         143.3723  143.5971  159.8343 O.2     1  UNL1       -0.2700
     21 C         142.1481  142.9952  160.4581 C.2     1  UNL1        0.2488
     22 N         141.8413  141.5409  160.2560 N.am    1  UNL1       -0.2997
     23 H         141.0378  141.1458  160.6654 H       1  UNL1        0.1498
     24 C         142.7587  140.6885  159.4302 C.3     1  UNL1        0.1032
     25 C         143.6941  139.5514  159.7163 C.3     1  UNL1        0.0898
     26 N         144.0560  139.4832  158.2622 N.3     1  UNL1       -0.2946
     27 C         143.1205  140.6203  157.9761 C.3     1  UNL1        0.0898
     28 H         143.7969  138.6067  157.8093 H       1  UNL1        0.1233
@<TRIPOS>BOND
     1    20    21    2
     2    21    22   am
     3    22    24    1
     4    24    25    1
     5    25    26    1
     6    26    27    1
     7    21     1    1
     8     1     2   ar
     9     2     3   ar
    10     3     4   ar
    11     4     5   ar
    12     5     6   ar
    13     6     7    2
    14     6     8   ar
    15     8     9   ar
    16     9    10   ar
    17    10    11   ar
    18    11    12   ar
    19    12    13   ar
    20    13    14   ar
    21    14    15   ar
    22    15    16   ar
    23    16    17   ar
    24    17    18   ar
    25    18    19   ar
    26    27    24    1
    27    19     1   ar
    28    19     5   ar
    29    17     8   ar
    30    16    11   ar
    31    22    23    1
    32    26    28    1
@<TRIPOS>MOLECULE
*****
 28 32 0 0 0
SMALL
GASTEIGER

@<TRIPOS>ATOM
      1 C         142.1672  140.2615  166.5918 C.ar    1  UNL1        0.0878
      2 C         142.8889  139.0489  167.1005 C.ar    1  UNL1        0.0091
      3 C         143.8327  138.3060  166.2021 C.ar    1  UNL1        0.0194
      4 C         144.0549  138.7756  164.7950 C.ar    1  UNL1        0.0844
      5 N         143.3332  139.9882  164.2862 N.ar    1  UNL1       -0.2576
      6 C         143.5554  140.4578  162.8791 C.ar    1  UNL1        0.2672
      7 O         144.4993  139.7149  161.9807 O.2     1  UNL1       -0.2665
      8 C         142.8337  141.6704  162.3703 C.ar    1  UNL1        0.0742
      9 C         143.0559  142.1401  160.9632 C.ar    1  UNL1        0.0063
     10 C         142.3342  143.3526  160.4544 C.ar    1  UNL1        0.0003
     11 C         141.3903  144.0956  161.3529 C.ar    1  UNL1        0.0015
     12 C         140.6687  145.3082  160.8441 C.ar    1  UNL1        0.0000
     13 C         139.7248  146.0511  161.7425 C.ar    1  UNL1        0.0000
     14 C         139.5026  145.5815  163.1497 C.ar    1  UNL1        0.0000
     15 C         140.2243  144.3689  163.6584 C.ar    1  UNL1        0.0015
     16 C         141.1681  143.6260  162.7600 C.ar    1  UNL1        0.0179
     17 C         141.8899  142.4134  163.2688 C.ar    1  UNL1        0.0875
     18 N         141.6677  141.9437  164.6759 N.ar    1  UNL1       -0.2276
     19 C         142.3893  140.7312  165.1847 C.ar    1  UNL1        0.1543
     20 O         139.7440  140.9244  167.2546 O.2     1  UNL1       -0.2700
     21 C         141.2233  141.0045  167.4902 C.2     1  UNL1        0.2488
     22 N         141.7586  141.8275  168.6243 N.am    1  UNL1       -0.2997
     23 H         142.7295  141.8800  168.7789 H       1  UNL1        0.1498
     24 C         140.8147  142.5704  169.5227 C.3     1  UNL1        0.1032
     25 C         140.5773  144.0150  169.8497 C.3     1  UNL1        0.0898
     26 N         139.4798  143.6210  170.7933 N.3     1  UNL1       -0.2946
     27 C         139.7172  142.1764  170.4662 C.3     1  UNL1        0.0898
     28 H         138.5570  143.9626  170.5245 H       1  UNL1        0.1233
@<TRIPOS>BOND
     1    20    21    2
     2    21    22   am
     3    22    24    1
     4    24    25    1
     5    25    26    1
     6    26    27    1
     7    21     1    1
     8     1     2   ar
     9     2     3   ar
    10     3     4   ar
    11     4     5   ar
    12     5     6   ar
    13     6     7    2
    14     6     8   ar
    15     8     9   ar
    16     9    10   ar
    17    10    11   ar
    18    11    12   ar
    19    12    13   ar
    20    13    14   ar
    21    14    15   ar
    22    15    16   ar
    23    16    17   ar
    24    17    18   ar
    25    18    19   ar
    26    27    24    1
    27    19     1   ar
    28    19     5   ar
    29    17     8   ar
    30    16    11   ar
    31    22    23    1
    32    26    28    1
@<TRIPOS>MOLECULE
*****
 28 32 0 0 0
SMALL
GASTEIGER

@<TRIPOS>ATOM
      1 C         139.8367  140.2668  167.0834 C.ar    1  UNL1        0.0878
      2 C         138.7138  139.5491  167.7720 C.ar    1  UNL1        0.0091
      3 C         137.9048  138.5305  167.0249 C.ar    1  UNL1        0.0194
      4 C         138.2187  138.2297  165.5893 C.ar    1  UNL1        0.0844
      5 N         139.3415  138.9473  164.9008 N.ar    1  UNL1       -0.2576
      6 C         139.6554  138.6464  163.4652 C.ar    1  UNL1        0.2672
      7 O         138.8465  137.6279  162.7181 O.2     1  UNL1       -0.2665
      8 C         140.7783  139.3642  162.7766 C.ar    1  UNL1        0.0742
      9 C         141.0922  139.0633  161.3410 C.ar    1  UNL1        0.0063
     10 C         142.2151  139.7810  160.6525 C.ar    1  UNL1        0.0003
     11 C         143.0241  140.7996  161.3995 C.ar    1  UNL1        0.0015
     12 C         144.1469  141.5172  160.7110 C.ar    1  UNL1        0.0000
     13 C         144.9559  142.5358  161.4580 C.ar    1  UNL1        0.0000
     14 C         144.6420  142.8367  162.8936 C.ar    1  UNL1        0.0000
     15 C         143.5191  142.1190  163.5822 C.ar    1  UNL1        0.0015
     16 C         142.7102  141.1005  162.8351 C.ar    1  UNL1        0.0179
     17 C         141.5873  140.3827  163.5237 C.ar    1  UNL1        0.0875
     18 N         141.2734  140.6836  164.9593 N.ar    1  UNL1       -0.2276
     19 C         140.1506  139.9659  165.6478 C.ar    1  UNL1        0.1543
     20 O         140.4452  142.7472  167.5603 O.2     1  UNL1       -0.2700
     21 C         140.6456  141.2853  167.8305 C.2     1  UNL1        0.2488
     22 N         141.6550  140.8421  168.8477 N.am    1  UNL1       -0.2997
     23 H         141.7865  139.8827  169.0250 H       1  UNL1        0.1498
     24 C         142.4639  141.8608  169.5948 C.3     1  UNL1        0.1032
     25 C         143.8818  142.3459  169.5278 C.3     1  UNL1        0.0898
     26 N         143.6079  143.3013  170.6513 N.3     1  UNL1       -0.2946
     27 C         142.1901  142.8162  170.7182 C.3     1  UNL1        0.0898
     28 H         143.7001  144.2840  170.3940 H       1  UNL1        0.1233
@<TRIPOS>BOND
     1    20    21    2
     2    21    22   am
     3    22    24    1
     4    24    25    1
     5    25    26    1
     6    26    27    1
     7    21     1    1
     8     1     2   ar
     9     2     3   ar
    10     3     4   ar
    11     4     5   ar
    12     5     6   ar
    13     6     7    2
    14     6     8   ar
    15     8     9   ar
    16     9    10   ar
    17    10    11   ar
    18    11    12   ar
    19    12    13   ar
    20    13    14   ar
    21    14    15   ar
    22    15    16   ar
    23    16    17   ar
    24    17    18   ar
    25    18    19   ar
    26    27    24    1
    27    19     1   ar
    28    19     5   ar
    29    17     8   ar
    30    16    11   ar
    31    22    23    1
    32    26    28    1
@<TRIPOS>MOLECULE
*****
 28 32 0 0 0
SMALL
GASTEIGER

@<TRIPOS>ATOM
      1 C         142.2212  143.6241  157.3222 C.ar    1  UNL1        0.0878
      2 C         141.3337  144.1445  156.2305 C.ar    1  UNL1        0.0091
      3 C         140.2008  145.0700  156.5621 C.ar    1  UNL1        0.0194
      4 C         139.9553  145.4751  157.9853 C.ar    1  UNL1        0.0844
      5 N         140.8427  144.9547  159.0770 N.ar    1  UNL1       -0.2576
      6 C         140.5971  145.3598  160.5002 C.ar    1  UNL1        0.2672
      7 O         139.4643  146.2853  160.8318 O.2     1  UNL1       -0.2665
      8 C         141.4846  144.8394  161.5919 C.ar    1  UNL1        0.0742
      9 C         141.2391  145.2445  163.0151 C.ar    1  UNL1        0.0063
     10 C         142.1264  144.7241  164.1068 C.ar    1  UNL1        0.0003
     11 C         143.2594  143.7985  163.7752 C.ar    1  UNL1        0.0015
     12 C         144.1467  143.2782  164.8669 C.ar    1  UNL1        0.0000
     13 C         145.2796  142.3527  164.5353 C.ar    1  UNL1        0.0000
     14 C         145.5252  141.9476  163.1120 C.ar    1  UNL1        0.0000
     15 C         144.6378  142.4680  162.0204 C.ar    1  UNL1        0.0015
     16 C         143.5049  143.3935  162.3520 C.ar    1  UNL1        0.0179
     17 C         142.6175  143.9139  161.2603 C.ar    1  UNL1        0.0875
     18 N         142.8630  143.5088  159.8371 N.ar    1  UNL1       -0.2276
     19 C         141.9756  144.0292  158.7454 C.ar    1  UNL1        0.1543
     20 O         143.2949  141.2599  157.4112 O.2     1  UNL1       -0.2700
     21 C         143.3541  142.6986  156.9906 C.2     1  UNL1        0.2488
     22 N         144.5461  143.2117  156.2384 N.am    1  UNL1       -0.2997
     23 H         144.5849  144.1559  155.9624 H       1  UNL1        0.1498
     24 C         145.6790  142.2861  155.9068 C.3     1  UNL1        0.1032
     25 C         147.1241  142.1956  156.2986 C.3     1  UNL1        0.0898
     26 N         147.2811  140.9772  155.4378 N.3     1  UNL1       -0.2946
     27 C         145.8360  141.0677  155.0461 C.3     1  UNL1        0.0898
     28 H         147.5203  140.1306  155.9541 H       1  UNL1        0.1233
@<TRIPOS>BOND
     1    20    21    2
     2    21    22   am
     3    22    24    1
     4    24    25    1
     5    25    26    1
     6    26    27    1
     7    21     1    1
     8     1     2   ar
     9     2     3   ar
    10     3     4   ar
    11     4     5   ar
    12     5     6   ar
    13     6     7    2
    14     6     8   ar
    15     8     9   ar
    16     9    10   ar
    17    10    11   ar
    18    11    12   ar
    19    12    13   ar
    20    13    14   ar
    21    14    15   ar
    22    15    16   ar
    23    16    17   ar
    24    17    18   ar
    25    18    19   ar
    26    27    24    1
    27    19     1   ar
    28    19     5   ar
    29    17     8   ar
    30    16    11   ar
    31    22    23    1
    32    26    28    1
@<TRIPOS>MOLECULE
*****
 28 32 0 0 0
SMALL
GASTEIGER

@<TRIPOS>ATOM
      1 C         140.5665  138.2072  156.9745 C.ar    1  UNL1        0.0878
      2 C         139.5882  139.2410  156.5010 C.ar    1  UNL1        0.0091
      3 C         138.9407  139.1001  155.1553 C.ar    1  UNL1        0.0194
      4 C         139.2714  137.9254  154.2831 C.ar    1  UNL1        0.0844
      5 N         140.2497  136.8916  154.7566 N.ar    1  UNL1       -0.2576
      6 C         140.5804  135.7169  153.8845 C.ar    1  UNL1        0.2672
      7 O         139.9329  135.5760  152.5388 O.2     1  UNL1       -0.2665
      8 C         141.5587  134.6831  154.3580 C.ar    1  UNL1        0.0742
      9 C         141.8895  133.5083  153.4859 C.ar    1  UNL1        0.0063
     10 C         142.8677  132.4745  153.9594 C.ar    1  UNL1        0.0003
     11 C         143.5153  132.6154  155.3051 C.ar    1  UNL1        0.0015
     12 C         144.4935  131.5816  155.7786 C.ar    1  UNL1        0.0000
     13 C         145.1410  131.7225  157.1243 C.ar    1  UNL1        0.0000
     14 C         144.8103  132.8972  157.9964 C.ar    1  UNL1        0.0000
     15 C         143.8320  133.9310  157.5229 C.ar    1  UNL1        0.0015
     16 C         143.1845  133.7901  156.1773 C.ar    1  UNL1        0.0179
     17 C         142.2062  134.8240  155.7037 C.ar    1  UNL1        0.0875
     18 N         141.8755  135.9987  156.5759 N.ar    1  UNL1       -0.2276
     19 C         140.8972  137.0325  156.1024 C.ar    1  UNL1        0.1543
     20 O         140.3681  138.3974  159.5581 O.2     1  UNL1       -0.2700
     21 C         141.2140  138.3481  158.3202 C.2     1  UNL1        0.2488
     22 N         142.7073  138.4397  158.4281 N.am    1  UNL1       -0.2997
     23 H         143.2624  138.4073  157.6157 H       1  UNL1        0.1498
     24 C         143.3548  138.5806  159.7738 C.3     1  UNL1        0.1032
     25 C         144.0182  139.7002  160.5197 C.3     1  UNL1        0.0898
     26 N         144.2704  138.7798  161.6770 N.3     1  UNL1       -0.2946
     27 C         143.6069  137.6602  160.9311 C.3     1  UNL1        0.0898
     28 H         143.7909  139.0497  162.5358 H       1  UNL1        0.1233
@<TRIPOS>BOND
     1    20    21    2
     2    21    22   am
     3    22    24    1
     4    24    25    1
     5    25    26    1
     6    26    27    1
     7    21     1    1
     8     1     2   ar
     9     2     3   ar
    10     3     4   ar
    11     4     5   ar
    12     5     6   ar
    13     6     7    2
    14     6     8   ar
    15     8     9   ar
    16     9    10   ar
    17    10    11   ar
    18    11    12   ar
    19    12    13   ar
    20    13    14   ar
    21    14    15   ar
    22    15    16   ar
    23    16    17   ar
    24    17    18   ar
    25    18    19   ar
    26    27    24    1
    27    19     1   ar
    28    19     5   ar
    29    17     8   ar
    30    16    11   ar
    31    22    23    1
    32    26    28    1
