@<TRIPOS>MOLECULE
*****
 33 37 0 0 0
SMALL
GASTEIGER

@<TRIPOS>ATOM
      1 N         144.0876  141.6763  158.7375 N.ar    1  UNL1       -0.2172
      2 C         145.2834  141.8832  157.8558 C.ar    1  UNL1        0.0586
      3 C         145.2150  140.8831  156.7399 C.ar    1  UNL1        0.0088
      4 C         143.9771  140.0581  156.9320 C.ar    1  UNL1        0.0161
      5 C         143.3943  138.9238  156.1423 C.ar    1  UNL1        0.0058
      6 C         142.1147  138.2798  156.5871 C.ar    1  UNL1        0.0537
      7 C         141.4179  138.7701  157.8216 C.ar    1  UNL1        0.0061
      8 C         142.0007  139.9043  158.6114 C.ar    1  UNL1        0.0191
      9 C         143.2803  140.5483  158.1666 C.ar    1  UNL1        0.0815
     10 C         146.2889  140.8528  155.6931 C.3     1  UNL1        0.1003
     11 N         147.4311  141.8226  155.7621 N.3     1  UNL1       -0.2697
     12 C         147.4995  142.8228  156.8780 C.3     1  UNL1        0.0786
     13 C         146.4256  142.8530  157.9248 C.3     1  UNL1        0.0627
     14 C         141.5318  137.1455  155.7973 C.2     1  UNL1        0.2490
     15 O         140.5183  137.4202  154.7263 O.2     1  UNL1       -0.2699
     16 N         141.9626  135.7365  156.0787 N.am    1  UNL1       -0.2761
     17 C         142.9762  135.4618  157.1498 C.3     1  UNL1        0.0937
     18 C         143.4070  134.0528  157.4312 C.3     1  UNL1        0.0216
     19 C         142.8241  132.9185  156.6414 C.3     1  UNL1        0.0034
     20 C         143.2549  131.5095  156.9228 C.3     1  UNL1        0.0001
     21 C         141.8105  133.1932  155.5703 C.3     1  UNL1        0.0216
     22 C         141.3798  134.6022  155.2890 C.3     1  UNL1        0.0937
     23 C         148.5050  141.7923  154.7152 C.3     1  UNL1        0.0628
     24 C         149.9415  141.6386  155.1188 C.3     1  UNL1        0.0481
     25 C         151.0155  141.6083  154.0719 C.3     1  UNL1        0.1435
     26 O         150.6528  141.7317  152.6217 O.3     1  UNL1       -0.3537
     27 C         149.2163  141.8854  152.2182 C.3     1  UNL1        0.1435
     28 C         148.1424  141.9157  153.2650 C.3     1  UNL1        0.0481
     29 S         143.7572  142.4598  159.9731 S.O2    1  UNL1        0.0660
     30 O         143.1748  143.5515  159.1252 O.2     1  UNL1       -0.1521
     31 O         144.3395  141.3682  160.8211 O.2     1  UNL1       -0.1521
     32 C         144.4817  143.4873  162.2468 C.3     1  UNL1        0.0294
     33 C         143.4267  143.2434  161.2088 C.3     1  UNL1        0.1752
@<TRIPOS>BOND
     1    32    33    1
     2    33    29    1
     3    29    30    2
     4    29    31    2
     5    29     1    1
     6     1     2   ar
     7     2     3   ar
     8     3     4   ar
     9     4     5   ar
    10     5     6   ar
    11     6    14    1
    12    14    15    2
    13    14    16   am
    14    16    17    1
    15    17    18    1
    16    18    19    1
    17    19    20    1
    18    19    21    1
    19    21    22    1
    20     6     7   ar
    21     7     8   ar
    22     8     9   ar
    23     3    10    1
    24    10    11    1
    25    11    23    1
    26    23    24    1
    27    24    25    1
    28    25    26    1
    29    26    27    1
    30    27    28    1
    31    11    12    1
    32    12    13    1
    33     9     1   ar
    34    28    23    1
    35    13     2    1
    36     9     4   ar
    37    22    16    1
@<TRIPOS>MOLECULE
*****
 33 37 0 0 0
SMALL
GASTEIGER

@<TRIPOS>ATOM
      1 N         140.5149  138.6451  156.1729 N.ar    1  UNL1       -0.2172
      2 C         141.1393  137.2841  156.0851 C.ar    1  UNL1        0.0586
      3 C         142.2344  137.2096  157.1074 C.ar    1  UNL1        0.0088
      4 C         142.2868  138.5247  157.8271 C.ar    1  UNL1        0.0161
      5 C         143.1649  139.0289  158.9338 C.ar    1  UNL1        0.0058
      6 C         142.9804  140.4202  159.4628 C.ar    1  UNL1        0.0537
      7 C         141.9177  141.3074  158.8852 C.ar    1  UNL1        0.0061
      8 C         141.0396  140.8032  157.7786 C.ar    1  UNL1        0.0191
      9 C         141.2241  139.4119  157.2496 C.ar    1  UNL1        0.0815
     10 C         143.0423  135.9540  157.2509 C.3     1  UNL1        0.1003
     11 N         142.7551  134.7728  156.3721 N.3     1  UNL1       -0.2697
     12 C         141.6601  134.8472  155.3497 C.3     1  UNL1        0.0786
     13 C         140.8521  136.1029  155.2062 C.3     1  UNL1        0.0627
     14 C         143.8585  140.9245  160.5695 C.2     1  UNL1        0.2490
     15 O         144.8006  142.0646  160.3191 O.2     1  UNL1       -0.2699
     16 N         143.7945  140.2886  161.9265 N.am    1  UNL1       -0.2761
     17 C         142.8524  139.1485  162.1769 C.3     1  UNL1        0.0937
     18 C         142.7884  138.5126  163.5339 C.3     1  UNL1        0.0216
     19 C         143.6666  139.0169  164.6406 C.3     1  UNL1        0.0034
     20 C         143.6026  138.3810  165.9977 C.3     1  UNL1        0.0001
     21 C         144.6086  140.1570  164.3902 C.3     1  UNL1        0.0216
     22 C         144.6726  140.7928  163.0332 C.3     1  UNL1        0.0937
     23 C         143.5631  133.5171  156.5157 C.3     1  UNL1        0.0628
     24 C         143.5673  132.4981  155.4149 C.3     1  UNL1        0.0481
     25 C         144.3753  131.2425  155.5585 C.3     1  UNL1        0.1435
     26 O         145.1790  131.0059  156.8027 O.3     1  UNL1       -0.3537
     27 C         145.1748  132.0249  157.9034 C.3     1  UNL1        0.1435
     28 C         144.3668  133.2806  157.7599 C.3     1  UNL1        0.0481
     29 S         139.3805  139.1507  155.3318 S.O2    1  UNL1        0.0660
     30 O         140.3457  139.4928  154.2357 O.2     1  UNL1       -0.1521
     31 O         138.4154  138.8086  156.4278 O.2     1  UNL1       -0.1521
     32 C         137.2316  138.6962  153.9441 C.3     1  UNL1        0.0294
     33 C         138.2461  139.6563  154.4906 C.3     1  UNL1        0.1752
@<TRIPOS>BOND
     1    32    33    1
     2    33    29    1
     3    29    30    2
     4    29    31    2
     5    29     1    1
     6     1     2   ar
     7     2     3   ar
     8     3     4   ar
     9     4     5   ar
    10     5     6   ar
    11     6    14    1
    12    14    15    2
    13    14    16   am
    14    16    17    1
    15    17    18    1
    16    18    19    1
    17    19    20    1
    18    19    21    1
    19    21    22    1
    20     6     7   ar
    21     7     8   ar
    22     8     9   ar
    23     3    10    1
    24    10    11    1
    25    11    23    1
    26    23    24    1
    27    24    25    1
    28    25    26    1
    29    26    27    1
    30    27    28    1
    31    11    12    1
    32    12    13    1
    33     9     1   ar
    34    28    23    1
    35    13     2    1
    36     9     4   ar
    37    22    16    1
@<TRIPOS>MOLECULE
*****
 33 37 0 0 0
SMALL
GASTEIGER

@<TRIPOS>ATOM
      1 N         141.9478  138.2743  155.7723 N.ar    1  UNL1       -0.2172
      2 C         142.3755  136.8441  155.6247 C.ar    1  UNL1        0.0586
      3 C         142.7978  136.3450  156.9747 C.ar    1  UNL1        0.0088
      4 C         142.6311  137.4667  157.9566 C.ar    1  UNL1        0.0161
      5 C         142.8897  137.5563  159.4314 C.ar    1  UNL1        0.0058
      6 C         142.6230  138.8383  160.1630 C.ar    1  UNL1        0.0537
      7 C         142.0977  140.0307  159.4198 C.ar    1  UNL1        0.0061
      8 C         141.8390  139.9410  157.9451 C.ar    1  UNL1        0.0191
      9 C         142.1057  138.6590  157.2135 C.ar    1  UNL1        0.0815
     10 C         143.2796  134.9337  157.1355 C.3     1  UNL1        0.1003
     11 N         143.3391  134.0214  155.9462 N.3     1  UNL1       -0.2697
     12 C         142.9169  134.5205  154.5962 C.3     1  UNL1        0.0786
     13 C         142.4351  135.9319  154.4354 C.3     1  UNL1        0.0627
     14 C         142.8816  138.9280  161.6379 C.2     1  UNL1        0.2490
     15 O         144.2160  139.3960  162.1382 O.2     1  UNL1       -0.2699
     16 N         141.8059  138.5496  162.6123 N.am    1  UNL1       -0.2761
     17 C         140.4715  138.0816  162.1119 C.3     1  UNL1        0.0937
     18 C         139.3957  137.7032  163.0864 C.3     1  UNL1        0.0216
     19 C         139.6543  137.7929  164.5612 C.3     1  UNL1        0.0034
     20 C         138.5785  137.4146  165.5357 C.3     1  UNL1        0.0001
     21 C         140.9887  138.2610  165.0616 C.3     1  UNL1        0.0216
     22 C         142.0645  138.6393  164.0871 C.3     1  UNL1        0.0937
     23 C         143.8210  132.6099  156.1071 C.3     1  UNL1        0.0628
     24 C         143.8080  131.6749  154.9342 C.3     1  UNL1        0.0481
     25 C         144.2898  130.2634  155.0951 C.3     1  UNL1        0.1435
     26 O         144.7845  129.7872  156.4286 O.3     1  UNL1       -0.3537
     27 C         144.7975  130.7223  157.6014 C.3     1  UNL1        0.1435
     28 C         144.3157  132.1337  157.4406 C.3     1  UNL1        0.0481
     29 S         141.4496  139.1636  154.6718 S.O2    1  UNL1        0.0660
     30 O         140.0469  138.7007  154.9328 O.2     1  UNL1       -0.1521
     31 O         142.8523  139.6264  154.4108 O.2     1  UNL1       -0.1521
     32 C         139.5907  140.6767  153.6691 C.3     1  UNL1        0.0294
     33 C         140.9513  140.0529  153.5714 C.3     1  UNL1        0.1752
@<TRIPOS>BOND
     1    32    33    1
     2    33    29    1
     3    29    30    2
     4    29    31    2
     5    29     1    1
     6     1     2   ar
     7     2     3   ar
     8     3     4   ar
     9     4     5   ar
    10     5     6   ar
    11     6    14    1
    12    14    15    2
    13    14    16   am
    14    16    17    1
    15    17    18    1
    16    18    19    1
    17    19    20    1
    18    19    21    1
    19    21    22    1
    20     6     7   ar
    21     7     8   ar
    22     8     9   ar
    23     3    10    1
    24    10    11    1
    25    11    23    1
    26    23    24    1
    27    24    25    1
    28    25    26    1
    29    26    27    1
    30    27    28    1
    31    11    12    1
    32    12    13    1
    33     9     1   ar
    34    28    23    1
    35    13     2    1
    36     9     4   ar
    37    22    16    1
@<TRIPOS>MOLECULE
*****
 33 37 0 0 0
SMALL
GASTEIGER

@<TRIPOS>ATOM
      1 N         139.2888  140.0695  157.2017 N.ar    1  UNL1       -0.2172
      2 C         139.7783  138.7668  156.6418 C.ar    1  UNL1        0.0586
      3 C         141.0696  138.4251  157.3242 C.ar    1  UNL1        0.0088
      4 C         141.3782  139.5165  158.3058 C.ar    1  UNL1        0.0161
      5 C         142.5192  139.7162  159.2588 C.ar    1  UNL1        0.0058
      6 C         142.5596  140.9322  160.1361 C.ar    1  UNL1        0.0537
      7 C         141.4589  141.9485  160.0604 C.ar    1  UNL1        0.0061
      8 C         140.3179  141.7488  159.1074 C.ar    1  UNL1        0.0191
      9 C         140.2776  140.5328  158.2301 C.ar    1  UNL1        0.0815
     10 C         141.7977  137.1642  156.9635 C.3     1  UNL1        0.1003
     11 N         141.2344  136.2451  155.9204 N.3     1  UNL1       -0.2697
     12 C         139.9430  136.5868  155.2381 C.3     1  UNL1        0.0786
     13 C         139.2150  137.8477  155.5987 C.3     1  UNL1        0.0627
     14 C         143.7006  141.1319  161.0891 C.2     1  UNL1        0.2490
     15 O         144.8170  142.0696  160.7365 O.2     1  UNL1       -0.2699
     16 N         143.7252  140.3939  162.3948 N.am    1  UNL1       -0.2761
     17 C         142.6087  139.4562  162.7474 C.3     1  UNL1        0.0937
     18 C         142.6333  138.7182  164.0531 C.3     1  UNL1        0.0216
     19 C         143.7743  138.9180  165.0061 C.3     1  UNL1        0.0034
     20 C         143.7989  138.1800  166.3118 C.3     1  UNL1        0.0001
     21 C         144.8907  139.8556  164.6535 C.3     1  UNL1        0.0216
     22 C         144.8661  140.5936  163.3478 C.3     1  UNL1        0.0937
     23 C         141.9625  134.9841  155.5597 C.3     1  UNL1        0.0628
     24 C         141.5657  134.2130  154.3359 C.3     1  UNL1        0.0481
     25 C         142.2938  132.9521  153.9752 C.3     1  UNL1        0.1435
     26 O         143.4186  132.4624  154.8384 O.3     1  UNL1       -0.3537
     27 C         143.8153  133.2336  156.0623 C.3     1  UNL1        0.1435
     28 C         143.0873  134.4945  156.4229 C.3     1  UNL1        0.0481
     29 S         138.0312  140.7835  156.8032 S.O2    1  UNL1        0.0660
     30 O         137.3329  140.2260  158.0080 O.2     1  UNL1       -0.1521
     31 O         138.7295  141.3409  155.5985 O.2     1  UNL1       -0.1521
     32 C         135.5219  140.7169  156.1332 C.3     1  UNL1        0.0294
     33 C         136.7736  141.4974  156.4048 C.3     1  UNL1        0.1752
@<TRIPOS>BOND
     1    32    33    1
     2    33    29    1
     3    29    30    2
     4    29    31    2
     5    29     1    1
     6     1     2   ar
     7     2     3   ar
     8     3     4   ar
     9     4     5   ar
    10     5     6   ar
    11     6    14    1
    12    14    15    2
    13    14    16   am
    14    16    17    1
    15    17    18    1
    16    18    19    1
    17    19    20    1
    18    19    21    1
    19    21    22    1
    20     6     7   ar
    21     7     8   ar
    22     8     9   ar
    23     3    10    1
    24    10    11    1
    25    11    23    1
    26    23    24    1
    27    24    25    1
    28    25    26    1
    29    26    27    1
    30    27    28    1
    31    11    12    1
    32    12    13    1
    33     9     1   ar
    34    28    23    1
    35    13     2    1
    36     9     4   ar
    37    22    16    1
@<TRIPOS>MOLECULE
*****
 33 37 0 0 0
SMALL
GASTEIGER

@<TRIPOS>ATOM
      1 N         142.3311  138.5776  157.5089 N.ar    1  UNL1       -0.2172
      2 C         141.7498  139.8712  157.0205 C.ar    1  UNL1        0.0586
      3 C         141.5181  140.7539  158.2109 C.ar    1  UNL1        0.0088
      4 C         141.9561  140.0059  159.4350 C.ar    1  UNL1        0.0161
      5 C         141.9624  140.3757  160.8887 C.ar    1  UNL1        0.0058
      6 C         142.4711  139.4005  161.9085 C.ar    1  UNL1        0.0537
      7 C         142.9736  138.0554  161.4746 C.ar    1  UNL1        0.0061
      8 C         142.9674  137.6855  160.0210 C.ar    1  UNL1        0.0191
      9 C         142.4586  138.6608  159.0012 C.ar    1  UNL1        0.0815
     10 C         140.9381  142.1249  158.0264 C.3     1  UNL1        0.1003
     11 N         140.5898  142.6131  156.6515 N.3     1  UNL1       -0.2697
     12 C         140.8215  141.7304  155.4611 C.3     1  UNL1        0.0786
     13 C         141.4015  140.3594  155.6456 C.3     1  UNL1        0.0627
     14 C         142.4774  139.7703  163.3622 C.2     1  UNL1        0.2490
     15 O         143.6720  140.4557  163.9566 O.2     1  UNL1       -0.2699
     16 N         141.2891  139.4548  164.2215 N.am    1  UNL1       -0.2761
     17 C         140.0946  138.7694  163.6270 C.3     1  UNL1        0.0937
     18 C         138.9063  138.4538  164.4863 C.3     1  UNL1        0.0216
     19 C         138.9126  138.8236  165.9401 C.3     1  UNL1        0.0034
     20 C         137.7243  138.5080  166.7994 C.3     1  UNL1        0.0001
     21 C         140.1071  139.5090  166.5344 C.3     1  UNL1        0.0216
     22 C         141.2954  139.8245  165.6751 C.3     1  UNL1        0.0937
     23 C         140.0098  143.9842  156.4670 C.3     1  UNL1        0.0628
     24 C         138.8862  144.1987  155.4967 C.3     1  UNL1        0.0481
     25 C         138.3062  145.5698  155.3122 C.3     1  UNL1        0.1435
     26 O         138.8498  146.7261  156.0980 O.3     1  UNL1       -0.3537
     27 C         139.9734  146.5114  157.0683 C.3     1  UNL1        0.1435
     28 C         140.5534  145.1405  157.2528 C.3     1  UNL1        0.0481
     29 S         142.7171  137.4063  156.6550 S.O2    1  UNL1        0.0660
     30 O         141.3496  136.8191  156.8423 O.2     1  UNL1       -0.1521
     31 O         144.0846  137.9934  156.4678 O.2     1  UNL1       -0.1521
     32 C         143.5938  134.9700  156.4405 C.3     1  UNL1        0.0294
     33 C         143.1030  136.2350  155.8011 C.3     1  UNL1        0.1752
@<TRIPOS>BOND
     1    32    33    1
     2    33    29    1
     3    29    30    2
     4    29    31    2
     5    29     1    1
     6     1     2   ar
     7     2     3   ar
     8     3     4   ar
     9     4     5   ar
    10     5     6   ar
    11     6    14    1
    12    14    15    2
    13    14    16   am
    14    16    17    1
    15    17    18    1
    16    18    19    1
    17    19    20    1
    18    19    21    1
    19    21    22    1
    20     6     7   ar
    21     7     8   ar
    22     8     9   ar
    23     3    10    1
    24    10    11    1
    25    11    23    1
    26    23    24    1
    27    24    25    1
    28    25    26    1
    29    26    27    1
    30    27    28    1
    31    11    12    1
    32    12    13    1
    33     9     1   ar
    34    28    23    1
    35    13     2    1
    36     9     4   ar
    37    22    16    1
@<TRIPOS>MOLECULE
*****
 33 37 0 0 0
SMALL
GASTEIGER

@<TRIPOS>ATOM
      1 N         143.6460  139.5093  156.7964 N.ar    1  UNL1       -0.2172
      2 C         143.4350  139.4978  158.2814 C.ar    1  UNL1        0.0586
      3 C         142.9681  138.1270  158.6726 C.ar    1  UNL1        0.0088
      4 C         142.8905  137.2914  157.4293 C.ar    1  UNL1        0.0161
      5 C         142.4925  135.8630  157.2033 C.ar    1  UNL1        0.0058
      6 C         142.5135  135.2889  155.8177 C.ar    1  UNL1        0.0537
      7 C         142.9324  136.1432  154.6581 C.ar    1  UNL1        0.0061
      8 C         143.3304  137.5716  154.8841 C.ar    1  UNL1        0.0191
      9 C         143.3095  138.1457  156.2697 C.ar    1  UNL1        0.0815
     10 C         142.6740  137.8168  160.1104 C.3     1  UNL1        0.1003
     11 N         142.8467  138.8774  161.1570 N.3     1  UNL1       -0.2697
     12 C         143.3136  140.2482  160.7658 C.3     1  UNL1        0.0786
     13 C         143.6078  140.5584  159.3280 C.3     1  UNL1        0.0627
     14 C         142.1154  133.8604  155.5916 C.2     1  UNL1        0.2490
     15 O         140.9815  133.5354  154.6651 O.2     1  UNL1       -0.2699
     16 N         142.8514  132.7569  156.2922 N.am    1  UNL1       -0.2761
     17 C         143.9854  133.0819  157.2188 C.3     1  UNL1        0.0937
     18 C         144.7213  131.9785  157.9193 C.3     1  UNL1        0.0216
     19 C         144.3233  130.5500  157.6933 C.3     1  UNL1        0.0034
     20 C         145.0592  129.4465  158.3938 C.3     1  UNL1        0.0001
     21 C         143.1894  130.2250  156.7667 C.3     1  UNL1        0.0216
     22 C         142.4534  131.3285  156.0662 C.3     1  UNL1        0.0937
     23 C         142.5525  138.5672  162.5948 C.3     1  UNL1        0.0628
     24 C         143.3623  139.2101  163.6816 C.3     1  UNL1        0.0481
     25 C         143.0681  138.8998  165.1194 C.3     1  UNL1        0.1435
     26 O         141.9643  137.9468  165.4704 O.3     1  UNL1       -0.3537
     27 C         141.1545  137.3039  164.3836 C.3     1  UNL1        0.1435
     28 C         141.4487  137.6141  162.9458 C.3     1  UNL1        0.0481
     29 S         144.1117  140.6791  155.9811 S.O2    1  UNL1        0.0660
     30 O         145.5374  140.3120  156.2687 O.2     1  UNL1       -0.1521
     31 O         142.6861  141.0462  155.6935 O.2     1  UNL1       -0.1521
     32 C         145.9886  142.3405  155.2972 C.3     1  UNL1        0.0294
     33 C         144.5775  141.8489  155.1657 C.3     1  UNL1        0.1752
@<TRIPOS>BOND
     1    32    33    1
     2    33    29    1
     3    29    30    2
     4    29    31    2
     5    29     1    1
     6     1     2   ar
     7     2     3   ar
     8     3     4   ar
     9     4     5   ar
    10     5     6   ar
    11     6    14    1
    12    14    15    2
    13    14    16   am
    14    16    17    1
    15    17    18    1
    16    18    19    1
    17    19    20    1
    18    19    21    1
    19    21    22    1
    20     6     7   ar
    21     7     8   ar
    22     8     9   ar
    23     3    10    1
    24    10    11    1
    25    11    23    1
    26    23    24    1
    27    24    25    1
    28    25    26    1
    29    26    27    1
    30    27    28    1
    31    11    12    1
    32    12    13    1
    33     9     1   ar
    34    28    23    1
    35    13     2    1
    36     9     4   ar
    37    22    16    1
@<TRIPOS>MOLECULE
*****
 33 37 0 0 0
SMALL
GASTEIGER

@<TRIPOS>ATOM
      1 N         143.8070  140.4759  156.8177 N.ar    1  UNL1       -0.2172
      2 C         143.6597  139.0234  156.4735 C.ar    1  UNL1        0.0586
      3 C         142.8722  138.3655  157.5676 C.ar    1  UNL1        0.0088
      4 C         142.5330  139.4113  158.5880 C.ar    1  UNL1        0.0161
      5 C         141.7726  139.3444  159.8792 C.ar    1  UNL1        0.0058
      6 C         141.5900  140.5819  160.7070 C.ar    1  UNL1        0.0537
      7 C         142.1678  141.8863  160.2435 C.ar    1  UNL1        0.0061
      8 C         142.9281  141.9532  158.9522 C.ar    1  UNL1        0.0191
      9 C         143.1107  140.7157  158.1245 C.ar    1  UNL1        0.0815
     10 C         142.5659  136.8990  157.4934 C.3     1  UNL1        0.1003
     11 N         143.0469  136.0905  156.3251 N.3     1  UNL1       -0.2697
     12 C         143.8344  136.7484  155.2310 C.3     1  UNL1        0.0786
     13 C         144.1407  138.2149  155.3052 C.3     1  UNL1        0.0627
     14 C         140.8296  140.5151  161.9983 C.2     1  UNL1        0.2490
     15 O         139.4090  140.9928  162.0577 O.2     1  UNL1       -0.2699
     16 N         141.4899  139.9704  163.2301 N.am    1  UNL1       -0.2761
     17 C         142.9106  139.4927  163.1706 C.3     1  UNL1        0.0937
     18 C         143.5709  138.9481  164.4024 C.3     1  UNL1        0.0216
     19 C         142.8105  138.8812  165.6938 C.3     1  UNL1        0.0034
     20 C         143.4708  138.3366  166.9256 C.3     1  UNL1        0.0001
     21 C         141.3899  139.3590  165.7532 C.3     1  UNL1        0.0216
     22 C         140.7296  139.9036  164.5214 C.3     1  UNL1        0.0937
     23 C         142.7405  134.6239  156.2509 C.3     1  UNL1        0.0628
     24 C         143.4975  133.6552  157.1105 C.3     1  UNL1        0.0481
     25 C         143.1911  132.1887  157.0363 C.3     1  UNL1        0.1435
     26 O         142.1278  131.6909  156.1026 O.3     1  UNL1       -0.3537
     27 C         141.3710  132.6596  155.2431 C.3     1  UNL1        0.1435
     28 C         141.6773  134.1261  155.3172 C.3     1  UNL1        0.0481
     29 S         144.5248  141.5076  155.9989 S.O2    1  UNL1        0.0660
     30 O         145.7600  141.3041  156.8251 O.2     1  UNL1       -0.1521
     31 O         143.2896  141.7112  155.1727 O.2     1  UNL1       -0.1521
     32 C         146.7352  142.4829  155.0434 C.3     1  UNL1        0.0294
     33 C         145.2426  142.5394  155.1801 C.3     1  UNL1        0.1752
@<TRIPOS>BOND
     1    32    33    1
     2    33    29    1
     3    29    30    2
     4    29    31    2
     5    29     1    1
     6     1     2   ar
     7     2     3   ar
     8     3     4   ar
     9     4     5   ar
    10     5     6   ar
    11     6    14    1
    12    14    15    2
    13    14    16   am
    14    16    17    1
    15    17    18    1
    16    18    19    1
    17    19    20    1
    18    19    21    1
    19    21    22    1
    20     6     7   ar
    21     7     8   ar
    22     8     9   ar
    23     3    10    1
    24    10    11    1
    25    11    23    1
    26    23    24    1
    27    24    25    1
    28    25    26    1
    29    26    27    1
    30    27    28    1
    31    11    12    1
    32    12    13    1
    33     9     1   ar
    34    28    23    1
    35    13     2    1
    36     9     4   ar
    37    22    16    1
@<TRIPOS>MOLECULE
*****
 33 37 0 0 0
SMALL
GASTEIGER

@<TRIPOS>ATOM
      1 N         142.0135  137.6413  156.9400 N.ar    1  UNL1       -0.2172
      2 C         140.8280  138.2048  156.2140 C.ar    1  UNL1        0.0586
      3 C         140.1000  139.1188  157.1545 C.ar    1  UNL1        0.0088
      4 C         140.8356  139.1203  158.4618 C.ar    1  UNL1        0.0161
      5 C         140.5814  139.8351  159.7557 C.ar    1  UNL1        0.0058
      6 C         141.5097  139.6367  160.9171 C.ar    1  UNL1        0.0537
      7 C         142.6923  138.7235  160.7845 C.ar    1  UNL1        0.0061
      8 C         142.9465  138.0087  159.4905 C.ar    1  UNL1        0.0191
      9 C         142.0182  138.2071  158.3292 C.ar    1  UNL1        0.0815
     10 C         138.8614  139.8318  156.6990 C.3     1  UNL1        0.1003
     11 N         138.3507  139.6307  155.3030 N.3     1  UNL1       -0.2697
     12 C         139.0786  138.7166  154.3625 C.3     1  UNL1        0.0786
     13 C         140.3173  138.0037  154.8180 C.3     1  UNL1        0.0627
     14 C         141.2555  140.3516  162.2111 C.2     1  UNL1        0.2490
     15 O         141.8459  141.7103  162.4459 O.2     1  UNL1       -0.2699
     16 N         140.4109  139.7076  163.2703 N.am    1  UNL1       -0.2761
     17 C         139.8205  138.3488  163.0354 C.3     1  UNL1        0.0937
     18 C         138.9759  137.7048  164.0946 C.3     1  UNL1        0.0216
     19 C         138.7216  138.4196  165.3887 C.3     1  UNL1        0.0034
     20 C         137.8770  137.7756  166.4479 C.3     1  UNL1        0.0001
     21 C         139.3120  139.7784  165.6235 C.3     1  UNL1        0.0216
     22 C         140.1567  140.4224  164.5643 C.3     1  UNL1        0.0937
     23 C         137.1120  140.3437  154.8476 C.3     1  UNL1        0.0628
     24 C         135.7732  139.6803  154.9804 C.3     1  UNL1        0.0481
     25 C         134.5345  140.3933  154.5249 C.3     1  UNL1        0.1435
     26 O         134.6347  141.7695  153.9368 O.3     1  UNL1       -0.3537
     27 C         135.9735  142.4328  153.8041 C.3     1  UNL1        0.1435
     28 C         137.2122  141.7199  154.2595 C.3     1  UNL1        0.0481
     29 S         143.0179  136.6807  156.3758 S.O2    1  UNL1        0.0660
     30 O         142.0660  135.5460  156.6131 O.2     1  UNL1       -0.1521
     31 O         143.9698  137.8152  156.1386 O.2     1  UNL1       -0.1521
     32 C         143.7126  134.2530  155.7639 C.3     1  UNL1        0.0294
     33 C         144.0223  135.7199  155.8117 C.3     1  UNL1        0.1752
@<TRIPOS>BOND
     1    32    33    1
     2    33    29    1
     3    29    30    2
     4    29    31    2
     5    29     1    1
     6     1     2   ar
     7     2     3   ar
     8     3     4   ar
     9     4     5   ar
    10     5     6   ar
    11     6    14    1
    12    14    15    2
    13    14    16   am
    14    16    17    1
    15    17    18    1
    16    18    19    1
    17    19    20    1
    18    19    21    1
    19    21    22    1
    20     6     7   ar
    21     7     8   ar
    22     8     9   ar
    23     3    10    1
    24    10    11    1
    25    11    23    1
    26    23    24    1
    27    24    25    1
    28    25    26    1
    29    26    27    1
    30    27    28    1
    31    11    12    1
    32    12    13    1
    33     9     1   ar
    34    28    23    1
    35    13     2    1
    36     9     4   ar
    37    22    16    1
@<TRIPOS>MOLECULE
*****
 33 37 0 0 0
SMALL
GASTEIGER

@<TRIPOS>ATOM
      1 N         138.4250  140.3946  156.7255 N.ar    1  UNL1       -0.2172
      2 C         139.1769  139.1589  156.3286 C.ar    1  UNL1        0.0586
      3 C         140.1037  138.7994  157.4519 C.ar    1  UNL1        0.0088
      4 C         139.9245  139.8129  158.5431 C.ar    1  UNL1        0.0161
      5 C         140.5721  139.9654  159.8874 C.ar    1  UNL1        0.0058
      6 C         140.1821  141.1039  160.7829 C.ar    1  UNL1        0.0537
      7 C         139.1446  142.0898  160.3339 C.ar    1  UNL1        0.0061
      8 C         138.4970  141.9373  158.9896 C.ar    1  UNL1        0.0191
      9 C         138.8870  140.7988  158.0941 C.ar    1  UNL1        0.0815
     10 C         140.9910  137.5956  157.3360 C.3     1  UNL1        0.1003
     11 N         140.9515  136.7512  156.0969 N.3     1  UNL1       -0.2697
     12 C         140.0248  137.1107  154.9735 C.3     1  UNL1        0.0786
     13 C         139.1374  138.3145  155.0894 C.3     1  UNL1        0.0627
     14 C         140.8296  141.2565  162.1273 C.2     1  UNL1        0.2490
     15 O         142.1348  141.9850  162.2528 O.2     1  UNL1       -0.2699
     16 N         140.1720  140.6804  163.3462 N.am    1  UNL1       -0.2761
     17 C         138.8668  139.9518  163.2207 C.3     1  UNL1        0.0937
     18 C         138.2092  139.3758  164.4396 C.3     1  UNL1        0.0216
     19 C         138.8568  139.5283  165.7840 C.3     1  UNL1        0.0034
     20 C         138.1991  138.9523  167.0029 C.3     1  UNL1        0.0001
     21 C         140.1619  140.2569  165.9095 C.3     1  UNL1        0.0216
     22 C         140.8195  140.8330  164.6906 C.3     1  UNL1        0.0937
     23 C         141.8389  135.5473  155.9810 C.3     1  UNL1        0.0628
     24 C         141.5862  134.5299  154.9082 C.3     1  UNL1        0.0481
     25 C         142.4735  133.3260  154.7924 C.3     1  UNL1        0.1435
     26 O         143.6135  133.1397  155.7493 O.3     1  UNL1       -0.3537
     27 C         143.8662  134.1572  156.8221 C.3     1  UNL1        0.1435
     28 C         142.9789  135.3610  156.9380 C.3     1  UNL1        0.0481
     29 S         137.3923  141.1019  155.8990 S.O2    1  UNL1        0.0660
     30 O         138.4750  141.8811  155.2130 O.2     1  UNL1       -0.1521
     31 O         136.3096  140.3228  156.5848 O.2     1  UNL1       -0.1521
     32 C         136.5486  143.2526  154.7102 C.3     1  UNL1        0.0294
     33 C         136.3596  141.8093  155.0723 C.3     1  UNL1        0.1752
@<TRIPOS>BOND
     1    32    33    1
     2    33    29    1
     3    29    30    2
     4    29    31    2
     5    29     1    1
     6     1     2   ar
     7     2     3   ar
     8     3     4   ar
     9     4     5   ar
    10     5     6   ar
    11     6    14    1
    12    14    15    2
    13    14    16   am
    14    16    17    1
    15    17    18    1
    16    18    19    1
    17    19    20    1
    18    19    21    1
    19    21    22    1
    20     6     7   ar
    21     7     8   ar
    22     8     9   ar
    23     3    10    1
    24    10    11    1
    25    11    23    1
    26    23    24    1
    27    24    25    1
    28    25    26    1
    29    26    27    1
    30    27    28    1
    31    11    12    1
    32    12    13    1
    33     9     1   ar
    34    28    23    1
    35    13     2    1
    36     9     4   ar
    37    22    16    1
