@<TRIPOS>MOLECULE
*****
 24 26 0 0 0
SMALL
GASTEIGER

@<TRIPOS>ATOM
      1 C         140.6725  139.6812  166.7832 C.ar    1  UNL1       -0.0078
      2 C         139.1806  139.7379  166.6388 C.ar    1  UNL1        0.0002
      3 C         138.5138  139.0677  165.4742 C.ar    1  UNL1        0.0372
      4 C         139.3391  138.3409  164.4541 C.ar    1  UNL1        0.1453
      5 C         140.8310  138.2842  164.5985 C.ar    1  UNL1        0.0372
      6 C         141.4977  138.9544  165.7630 C.ar    1  UNL1        0.0002
      7 C         142.0162  142.0245  169.5705 C.3     1  UNL1        0.1315
      8 C         142.7146  140.7409  169.9094 C.3     1  UNL1        0.0268
      9 C         142.2962  139.7069  168.9065 C.3     1  UNL1        0.0221
     10 C         141.3393  140.3515  167.9478 C.3     1  UNL1        0.0772
     11 N         141.1663  141.7838  168.3582 N.3     1  UNL1       -0.2890
     12 H         140.1873  141.9644  168.5805 H       1  UNL1        0.1239
     13 N         143.4172  143.6466  171.0388 N.am    1  UNL1       -0.3277
     14 C         142.1452  143.3212  170.3136 C.2     1  UNL1        0.2336
     15 O         141.0022  144.2924  170.3313 O.2     1  UNL1       -0.2739
     16 H         143.5019  144.4977  171.5265 H       1  UNL1        0.1450
     17 H         144.1674  143.0092  171.0272 H       1  UNL1        0.1450
     18 O         138.6723  137.6706  163.2894 O.3     1  UNL1       -0.4535
     19 C         138.6871  138.3236  161.9391 C.ar    1  UNL1        0.1453
     20 C         137.5774  139.2518  161.5426 C.ar    1  UNL1        0.0375
     21 C         137.5923  139.9048  160.1922 C.ar    1  UNL1        0.0031
     22 C         138.7169  139.6296  159.2385 C.ar    1  UNL1        0.0002
     23 C         139.8265  138.7015  159.6350 C.ar    1  UNL1        0.0031
     24 C         139.8117  138.0485  160.9853 C.ar    1  UNL1        0.0375
@<TRIPOS>BOND
     1    13    14   am
     2    14    15    2
     3     7    14    1
     4     7     8    1
     5     8     9    1
     6     9    10    1
     7    10     1    1
     8     1     2   ar
     9     2     3   ar
    10     3     4   ar
    11     4    18    1
    12    18    19    1
    13    19    20   ar
    14    20    21   ar
    15    21    22   ar
    16    22    23   ar
    17    23    24   ar
    18     4     5   ar
    19     5     6   ar
    20    10    11    1
    21    11     7    1
    22     6     1   ar
    23    24    19   ar
    24    13    16    1
    25    13    17    1
    26    11    12    1
@<TRIPOS>MOLECULE
*****
 24 26 0 0 0
SMALL
GASTEIGER

@<TRIPOS>ATOM
      1 C         139.5285  140.5117  166.1540 C.ar    1  UNL1       -0.0078
      2 C         139.8268  139.0598  165.9240 C.ar    1  UNL1        0.0002
      3 C         139.3014  138.3710  164.6995 C.ar    1  UNL1        0.0372
      4 C         138.4777  139.1342  163.7049 C.ar    1  UNL1        0.1453
      5 C         138.1795  140.5861  163.9349 C.ar    1  UNL1        0.0372
      6 C         138.7049  141.2748  165.1595 C.ar    1  UNL1        0.0002
      7 C         140.8258  141.6144  169.6421 C.3     1  UNL1        0.1315
      8 C         140.8991  142.9066  168.8838 C.3     1  UNL1        0.0268
      9 C         140.4221  142.6507  167.4849 C.3     1  UNL1        0.0221
     10 C         140.0539  141.2005  167.3786 C.3     1  UNL1        0.0772
     11 N         140.3034  140.5600  168.7118 N.3     1  UNL1       -0.2890
     12 H         140.9913  139.8133  168.6138 H       1  UNL1        0.1239
     13 N         142.3234  140.4744  171.4330 N.am    1  UNL1       -0.3277
     14 C         141.2077  141.4122  171.0785 C.2     1  UNL1        0.2336
     15 O         140.4739  142.1477  172.1604 O.2     1  UNL1       -0.2739
     16 H         142.5741  140.3417  172.3758 H       1  UNL1        0.1450
     17 H         142.8051  139.9917  170.7230 H       1  UNL1        0.1450
     18 O         137.9523  138.4454  162.4803 O.3     1  UNL1       -0.4535
     19 C         138.3880  138.9000  161.1190 C.ar    1  UNL1        0.1453
     20 C         137.5619  139.8964  160.3609 C.ar    1  UNL1        0.0375
     21 C         137.9977  140.3510  158.9994 C.ar    1  UNL1        0.0031
     22 C         139.2596  139.8092  158.3961 C.ar    1  UNL1        0.0002
     23 C         140.0858  138.8129  159.1542 C.ar    1  UNL1        0.0031
     24 C         139.6500  138.3582  160.5156 C.ar    1  UNL1        0.0375
@<TRIPOS>BOND
     1    13    14   am
     2    14    15    2
     3     7    14    1
     4     7     8    1
     5     8     9    1
     6     9    10    1
     7    10     1    1
     8     1     2   ar
     9     2     3   ar
    10     3     4   ar
    11     4    18    1
    12    18    19    1
    13    19    20   ar
    14    20    21   ar
    15    21    22   ar
    16    22    23   ar
    17    23    24   ar
    18     4     5   ar
    19     5     6   ar
    20    10    11    1
    21    11     7    1
    22     6     1   ar
    23    24    19   ar
    24    13    16    1
    25    13    17    1
    26    11    12    1
@<TRIPOS>MOLECULE
*****
 24 26 0 0 0
SMALL
GASTEIGER

@<TRIPOS>ATOM
      1 C         140.5219  142.9574  166.1150 C.ar    1  UNL1       -0.0078
      2 C         141.6929  142.8789  165.1808 C.ar    1  UNL1        0.0002
      3 C         141.7132  143.7099  163.9322 C.ar    1  UNL1        0.0372
      4 C         140.5626  144.6194  163.6178 C.ar    1  UNL1        0.1453
      5 C         139.3916  144.6979  164.5519 C.ar    1  UNL1        0.0372
      6 C         139.3713  143.8669  165.8005 C.ar    1  UNL1        0.0002
      7 C         140.8402  141.3880  169.6507 C.3     1  UNL1        0.1315
      8 C         140.1003  140.3073  168.9194 C.3     1  UNL1        0.0268
      9 C         139.8910  140.7637  167.5060 C.3     1  UNL1        0.0221
     10 C         140.5016  142.1264  167.3637 C.3     1  UNL1        0.0772
     11 N         141.0882  142.5123  168.6892 N.3     1  UNL1       -0.2890
     12 H         140.6426  143.3640  169.0302 H       1  UNL1        0.1239
     13 N         142.4058  140.4832  171.5163 N.am    1  UNL1       -0.3277
     14 C         141.2586  141.3509  171.0907 C.2     1  UNL1        0.2336
     15 O         140.5299  142.1815  172.1051 O.2     1  UNL1       -0.2739
     16 H         142.6804  140.4589  172.4614 H       1  UNL1        0.1450
     17 H         142.8841  139.9381  170.8505 H       1  UNL1        0.1450
     18 O         140.5829  145.4504  162.3691 O.3     1  UNL1       -0.4535
     19 C         140.2577  144.8236  161.0457 C.ar    1  UNL1        0.1453
     20 C         140.6941  145.4881  159.7737 C.ar    1  UNL1        0.0375
     21 C         140.3688  144.8613  158.4503 C.ar    1  UNL1        0.0031
     22 C         139.6072  143.5701  158.3989 C.ar    1  UNL1        0.0002
     23 C         139.1707  142.9057  159.6710 C.ar    1  UNL1        0.0031
     24 C         139.4960  143.5324  160.9943 C.ar    1  UNL1        0.0375
@<TRIPOS>BOND
     1    13    14   am
     2    14    15    2
     3     7    14    1
     4     7     8    1
     5     8     9    1
     6     9    10    1
     7    10     1    1
     8     1     2   ar
     9     2     3   ar
    10     3     4   ar
    11     4    18    1
    12    18    19    1
    13    19    20   ar
    14    20    21   ar
    15    21    22   ar
    16    22    23   ar
    17    23    24   ar
    18     4     5   ar
    19     5     6   ar
    20    10    11    1
    21    11     7    1
    22     6     1   ar
    23    24    19   ar
    24    13    16    1
    25    13    17    1
    26    11    12    1
@<TRIPOS>MOLECULE
*****
 24 26 0 0 0
SMALL
GASTEIGER

@<TRIPOS>ATOM
      1 C         140.1442  139.7250  166.6693 C.ar    1  UNL1       -0.0078
      2 C         141.4602  139.4218  166.0166 C.ar    1  UNL1        0.0002
      3 C         141.5068  138.5703  164.7826 C.ar    1  UNL1        0.0372
      4 C         140.2374  138.0219  164.2014 C.ar    1  UNL1        0.1453
      5 C         138.9213  138.3251  164.8541 C.ar    1  UNL1        0.0372
      6 C         138.8747  139.1766  166.0880 C.ar    1  UNL1        0.0002
      7 C         140.4901  142.3797  169.4797 C.3     1  UNL1        0.1315
      8 C         139.5611  141.3942  170.1246 C.3     1  UNL1        0.0268
      9 C         139.3185  140.2798  169.1503 C.3     1  UNL1        0.0221
     10 C         140.0975  140.5766  167.9033 C.3     1  UNL1        0.0772
     11 N         140.8216  141.8743  168.1068 N.3     1  UNL1       -0.2890
     12 H         140.5207  142.5521  167.4065 H       1  UNL1        0.1239
     13 N         142.4261  143.7430  170.5490 N.am    1  UNL1       -0.3277
     14 C         140.9984  143.6478  170.0990 C.2     1  UNL1        0.2336
     15 O         140.0790  144.8209  170.2682 O.2     1  UNL1       -0.2739
     16 H         142.7597  144.5753  170.9554 H       1  UNL1        0.1450
     17 H         143.0296  142.9731  170.4380 H       1  UNL1        0.1450
     18 O         140.2841  137.1703  162.9674 O.3     1  UNL1       -0.4535
     19 C         140.4597  137.8090  161.6216 C.ar    1  UNL1        0.1453
     20 C         139.2574  138.1996  160.8141 C.ar    1  UNL1        0.0375
     21 C         139.4331  138.8383  159.4683 C.ar    1  UNL1        0.0031
     22 C         140.8110  139.0863  158.9299 C.ar    1  UNL1        0.0002
     23 C         142.0132  138.6958  159.7374 C.ar    1  UNL1        0.0031
     24 C         141.8376  138.0571  161.0832 C.ar    1  UNL1        0.0375
@<TRIPOS>BOND
     1    13    14   am
     2    14    15    2
     3     7    14    1
     4     7     8    1
     5     8     9    1
     6     9    10    1
     7    10     1    1
     8     1     2   ar
     9     2     3   ar
    10     3     4   ar
    11     4    18    1
    12    18    19    1
    13    19    20   ar
    14    20    21   ar
    15    21    22   ar
    16    22    23   ar
    17    23    24   ar
    18     4     5   ar
    19     5     6   ar
    20    10    11    1
    21    11     7    1
    22     6     1   ar
    23    24    19   ar
    24    13    16    1
    25    13    17    1
    26    11    12    1
@<TRIPOS>MOLECULE
*****
 24 26 0 0 0
SMALL
GASTEIGER

@<TRIPOS>ATOM
      1 C         142.4209  141.4510  166.3516 C.ar    1  UNL1       -0.0078
      2 C         143.4837  142.5055  166.2595 C.ar    1  UNL1        0.0002
      3 C         143.7435  143.1962  164.9536 C.ar    1  UNL1        0.0372
      4 C         142.9406  142.8325  163.7399 C.ar    1  UNL1        0.1453
      5 C         141.8778  141.7780  163.8321 C.ar    1  UNL1        0.0372
      6 C         141.6180  141.0873  165.1380 C.ar    1  UNL1        0.0002
      7 C         141.2739  140.2357  169.8550 C.3     1  UNL1        0.1315
      8 C         142.2482  139.1588  169.4792 C.3     1  UNL1        0.0268
      9 C         142.7964  139.4830  168.1211 C.3     1  UNL1        0.0221
     10 C         142.1610  140.7603  167.6576 C.3     1  UNL1        0.0772
     11 N         141.2201  141.2255  168.7291 N.3     1  UNL1       -0.2890
     12 H         140.2712  141.2766  168.3583 H       1  UNL1        0.1239
     13 N         139.6630  139.1395  171.5735 N.am    1  UNL1       -0.3277
     14 C         140.4911  140.3099  171.1323 C.2     1  UNL1        0.2336
     15 O         140.5362  141.5543  171.9685 O.2     1  UNL1       -0.2739
     16 H         139.1492  139.1882  172.4119 H       1  UNL1        0.1450
     17 H         139.6334  138.3227  171.0247 H       1  UNL1        0.1450
     18 O         143.2005  143.5232  162.4340 O.3     1  UNL1       -0.4535
     19 C         142.1104  144.3146  161.7742 C.ar    1  UNL1        0.1453
     20 C         141.9081  144.2207  160.2908 C.ar    1  UNL1        0.0375
     21 C         140.8180  145.0122  159.6310 C.ar    1  UNL1        0.0031
     22 C         139.9302  145.8974  160.4545 C.ar    1  UNL1        0.0002
     23 C         140.1325  145.9913  161.9378 C.ar    1  UNL1        0.0031
     24 C         141.2226  145.1999  162.5977 C.ar    1  UNL1        0.0375
@<TRIPOS>BOND
     1    13    14   am
     2    14    15    2
     3     7    14    1
     4     7     8    1
     5     8     9    1
     6     9    10    1
     7    10     1    1
     8     1     2   ar
     9     2     3   ar
    10     3     4   ar
    11     4    18    1
    12    18    19    1
    13    19    20   ar
    14    20    21   ar
    15    21    22   ar
    16    22    23   ar
    17    23    24   ar
    18     4     5   ar
    19     5     6   ar
    20    10    11    1
    21    11     7    1
    22     6     1   ar
    23    24    19   ar
    24    13    16    1
    25    13    17    1
    26    11    12    1
@<TRIPOS>MOLECULE
*****
 24 26 0 0 0
SMALL
GASTEIGER

@<TRIPOS>ATOM
      1 C         143.2872  141.8206  166.4825 C.ar    1  UNL1       -0.0078
      2 C         143.9819  142.8191  165.6049 C.ar    1  UNL1        0.0002
      3 C         144.4917  142.4056  164.2562 C.ar    1  UNL1        0.0372
      4 C         144.3067  140.9935  163.7851 C.ar    1  UNL1        0.1453
      5 C         143.6120  139.9950  164.6627 C.ar    1  UNL1        0.0372
      6 C         143.1022  140.4086  166.0114 C.ar    1  UNL1        0.0002
      7 C         141.3203  143.0150  169.6083 C.3     1  UNL1        0.1315
      8 C         142.6657  142.7258  170.2055 C.3     1  UNL1        0.0268
      9 C         143.5662  142.2432  169.1072 C.3     1  UNL1        0.0221
     10 C         142.7774  142.2341  167.8313 C.3     1  UNL1        0.0772
     11 N         141.3894  142.7111  168.1411 N.3     1  UNL1       -0.2890
     12 H         140.7132  141.9846  167.9058 H       1  UNL1        0.1239
     13 N         139.8160  144.9887  170.3775 N.am    1  UNL1       -0.3277
     14 C         140.1172  143.5195  170.3485 C.2     1  UNL1        0.2336
     15 O         139.2152  142.5549  171.0598 O.2     1  UNL1       -0.2739
     16 H         139.0263  145.3198  170.8633 H       1  UNL1        0.1450
     17 H         140.4079  145.6218  169.9107 H       1  UNL1        0.1450
     18 O         144.8165  140.5800  162.4363 O.3     1  UNL1       -0.4535
     19 C         143.9183  139.8407  161.4894 C.ar    1  UNL1        0.1453
     20 C         144.0098  138.3475  161.3804 C.ar    1  UNL1        0.0375
     21 C         143.1116  137.6082  160.4335 C.ar    1  UNL1        0.0031
     22 C         142.1219  138.3621  159.5955 C.ar    1  UNL1        0.0002
     23 C         142.0305  139.8553  159.7045 C.ar    1  UNL1        0.0031
     24 C         142.9286  140.5946  160.6514 C.ar    1  UNL1        0.0375
@<TRIPOS>BOND
     1    13    14   am
     2    14    15    2
     3     7    14    1
     4     7     8    1
     5     8     9    1
     6     9    10    1
     7    10     1    1
     8     1     2   ar
     9     2     3   ar
    10     3     4   ar
    11     4    18    1
    12    18    19    1
    13    19    20   ar
    14    20    21   ar
    15    21    22   ar
    16    22    23   ar
    17    23    24   ar
    18     4     5   ar
    19     5     6   ar
    20    10    11    1
    21    11     7    1
    22     6     1   ar
    23    24    19   ar
    24    13    16    1
    25    13    17    1
    26    11    12    1
@<TRIPOS>MOLECULE
*****
 24 26 0 0 0
SMALL
GASTEIGER

@<TRIPOS>ATOM
      1 C         141.8453  139.3612  166.6928 C.ar    1  UNL1       -0.0078
      2 C         142.7189  138.4209  165.9166 C.ar    1  UNL1        0.0002
      3 C         142.2173  137.8112  164.6412 C.ar    1  UNL1        0.0372
      4 C         140.8419  138.1418  164.1421 C.ar    1  UNL1        0.1453
      5 C         139.9682  139.0821  164.9183 C.ar    1  UNL1        0.0372
      6 C         140.4699  139.6918  166.1936 C.ar    1  UNL1        0.0002
      7 C         143.1696  141.5764  169.5919 C.3     1  UNL1        0.1315
      8 C         143.0681  140.2421  170.2697 C.3     1  UNL1        0.0268
      9 C         142.5596  139.2499  169.2662 C.3     1  UNL1        0.0221
     10 C         142.3469  139.9710  167.9682 C.3     1  UNL1        0.0772
     11 N         142.7239  141.4088  168.1695 N.3     1  UNL1       -0.2890
     12 H         141.9181  142.0068  167.9865 H       1  UNL1        0.1239
     13 N         145.1025  143.1196  170.3871 N.am    1  UNL1       -0.3277
     14 C         143.6352  142.8539  170.2253 C.2     1  UNL1        0.2336
     15 O         142.6333  143.8658  170.6969 O.2     1  UNL1       -0.2739
     16 H         145.4081  143.9581  170.8028 H       1  UNL1        0.1450
     17 H         145.7601  142.4555  170.0776 H       1  UNL1        0.1450
     18 O         140.3403  137.5320  162.8667 O.3     1  UNL1       -0.4535
     19 C         139.6380  138.3856  161.8527 C.ar    1  UNL1        0.1453
     20 C         140.4304  139.1167  160.8098 C.ar    1  UNL1        0.0375
     21 C         139.7281  139.9703  159.7958 C.ar    1  UNL1        0.0031
     22 C         138.2334  140.0928  159.8248 C.ar    1  UNL1        0.0002
     23 C         137.4410  139.3617  160.8677 C.ar    1  UNL1        0.0031
     24 C         138.1432  138.5082  161.8816 C.ar    1  UNL1        0.0375
@<TRIPOS>BOND
     1    13    14   am
     2    14    15    2
     3     7    14    1
     4     7     8    1
     5     8     9    1
     6     9    10    1
     7    10     1    1
     8     1     2   ar
     9     2     3   ar
    10     3     4   ar
    11     4    18    1
    12    18    19    1
    13    19    20   ar
    14    20    21   ar
    15    21    22   ar
    16    22    23   ar
    17    23    24   ar
    18     4     5   ar
    19     5     6   ar
    20    10    11    1
    21    11     7    1
    22     6     1   ar
    23    24    19   ar
    24    13    16    1
    25    13    17    1
    26    11    12    1
@<TRIPOS>MOLECULE
*****
 24 26 0 0 0
SMALL
GASTEIGER

@<TRIPOS>ATOM
      1 C         142.7721  140.1280  166.2189 C.ar    1  UNL1       -0.0078
      2 C         143.7156  140.8138  165.2758 C.ar    1  UNL1        0.0002
      3 C         144.0561  140.1774  163.9609 C.ar    1  UNL1        0.0372
      4 C         143.4532  138.8552  163.5892 C.ar    1  UNL1        0.1453
      5 C         142.5098  138.1694  164.5323 C.ar    1  UNL1        0.0372
      6 C         142.1693  138.8058  165.8472 C.ar    1  UNL1        0.0002
      7 C         141.4772  141.1544  169.7311 C.3     1  UNL1        0.1315
      8 C         142.3377  142.3330  169.3836 C.3     1  UNL1        0.0268
      9 C         142.9275  142.0919  168.0257 C.3     1  UNL1        0.0221
     10 C         142.4316  140.7644  167.5339 C.3     1  UNL1        0.0772
     11 N         141.5352  140.1850  168.5879 N.3     1  UNL1       -0.2890
     12 H         141.9107  139.2928  168.9094 H       1  UNL1        0.1239
     13 N         139.9748  139.6877  171.2613 N.am    1  UNL1       -0.3277
     14 C         140.6959  140.9766  170.9992 C.2     1  UNL1        0.2336
     15 O         140.6358  142.0876  172.0051 O.2     1  UNL1       -0.2739
     16 H         139.4620  139.5710  172.0935 H       1  UNL1        0.1450
     17 H         140.0143  138.9585  170.6010 H       1  UNL1        0.1450
     18 O         143.7938  138.2188  162.2742 O.3     1  UNL1       -0.4535
     19 C         143.1356  138.7001  161.0152 C.ar    1  UNL1        0.1453
     20 C         143.8623  139.6424  160.1019 C.ar    1  UNL1        0.0375
     21 C         143.2040  140.1237  158.8429 C.ar    1  UNL1        0.0031
     22 C         141.8191  139.6627  158.4972 C.ar    1  UNL1        0.0002
     23 C         141.0924  138.7205  159.4105 C.ar    1  UNL1        0.0031
     24 C         141.7506  138.2392  160.6695 C.ar    1  UNL1        0.0375
@<TRIPOS>BOND
     1    13    14   am
     2    14    15    2
     3     7    14    1
     4     7     8    1
     5     8     9    1
     6     9    10    1
     7    10     1    1
     8     1     2   ar
     9     2     3   ar
    10     3     4   ar
    11     4    18    1
    12    18    19    1
    13    19    20   ar
    14    20    21   ar
    15    21    22   ar
    16    22    23   ar
    17    23    24   ar
    18     4     5   ar
    19     5     6   ar
    20    10    11    1
    21    11     7    1
    22     6     1   ar
    23    24    19   ar
    24    13    16    1
    25    13    17    1
    26    11    12    1
@<TRIPOS>MOLECULE
*****
 24 26 0 0 0
SMALL
GASTEIGER

@<TRIPOS>ATOM
      1 C         139.2375  139.6660  164.1944 C.ar    1  UNL1       -0.0078
      2 C         140.4469  140.3870  164.7115 C.ar    1  UNL1        0.0002
      3 C         140.6920  140.4766  166.1886 C.ar    1  UNL1        0.0372
      4 C         139.7277  139.8453  167.1486 C.ar    1  UNL1        0.1453
      5 C         138.5183  139.1243  166.6314 C.ar    1  UNL1        0.0372
      6 C         138.2732  139.0347  165.1543 C.ar    1  UNL1        0.0002
      7 C         139.3130  139.1825  160.3439 C.3     1  UNL1        0.1315
      8 C         137.9173  139.6943  160.5444 C.3     1  UNL1        0.0268
      9 C         137.7192  139.9377  162.0112 C.3     1  UNL1        0.0221
     10 C         138.9924  139.5763  162.7172 C.3     1  UNL1        0.0772
     11 N         139.9774  139.1096  161.6867 N.3     1  UNL1       -0.2890
     12 H         140.2551  138.1481  161.8838 H       1  UNL1        0.1239
     13 N         139.1373  138.9174  157.7654 N.am    1  UNL1       -0.3277
     14 C         139.9350  138.8091  159.0310 C.2     1  UNL1        0.2336
     15 O         141.3548  138.3275  158.9837 O.2     1  UNL1       -0.2739
     16 H         139.5455  138.6724  156.9037 H       1  UNL1        0.1450
     17 H         138.2054  139.2336  157.7964 H       1  UNL1        0.1450
     18 O         139.9728  139.9350  168.6257 O.3     1  UNL1       -0.4535
     19 C         140.9533  140.9344  169.1640 C.ar    1  UNL1        0.1453
     20 C         140.5032  142.3288  169.4849 C.ar    1  UNL1        0.0375
     21 C         141.4839  143.3282  170.0231 C.ar    1  UNL1        0.0031
     22 C         142.9145  142.9332  170.2404 C.ar    1  UNL1        0.0002
     23 C         143.3645  141.5387  169.9195 C.ar    1  UNL1        0.0031
     24 C         142.3840  140.5393  169.3813 C.ar    1  UNL1        0.0375
@<TRIPOS>BOND
     1    13    14   am
     2    14    15    2
     3     7    14    1
     4     7     8    1
     5     8     9    1
     6     9    10    1
     7    10     1    1
     8     1     2   ar
     9     2     3   ar
    10     3     4   ar
    11     4    18    1
    12    18    19    1
    13    19    20   ar
    14    20    21   ar
    15    21    22   ar
    16    22    23   ar
    17    23    24   ar
    18     4     5   ar
    19     5     6   ar
    20    10    11    1
    21    11     7    1
    22     6     1   ar
    23    24    19   ar
    24    13    16    1
    25    13    17    1
    26    11    12    1
