@<TRIPOS>MOLECULE
*****
 33 38 0 0 0
SMALL
GASTEIGER

@<TRIPOS>ATOM
      1 C         142.8190  142.5009  167.5258 C.2     1  UNL1        0.2507
      2 O         144.1812  142.6322  168.1397 O.2     1  UNL1       -0.2698
      3 N         142.5980  142.9029  166.0977 N.am    1  UNL1       -0.2703
      4 C         143.6375  143.4496  165.1647 C.3     1  UNL1        0.1307
      5 C         142.9807  143.7133  163.8423 C.3     1  UNL1        0.2004
      6 F         144.4261  144.0971  163.7266 F       1  UNL1       -0.2336
      7 C         143.2171  144.2143  162.4483 C.3     1  UNL1        0.1321
      8 N         141.9179  144.1401  161.7024 N.pl3   1  UNL1       -0.2579
      9 C         140.8784  143.5934  162.6354 C.3     1  UNL1        0.1321
     10 C         141.5352  143.3296  163.9579 C.3     1  UNL1        0.2004
     11 F         140.0897  142.9459  164.0736 F       1  UNL1       -0.2336
     12 C         141.2987  142.8287  165.3518 C.3     1  UNL1        0.1307
     13 C         141.6969  144.5421  160.2743 C.ar    1  UNL1        0.2925
     14 N         142.5261  144.1148  159.0996 N.ar    1  UNL1       -0.1946
     15 C         141.9495  144.7506  157.8694 C.ar    1  UNL1        0.1202
     16 C         142.3509  144.6886  156.4254 C.ar    1  UNL1        0.0224
     17 C         141.5668  145.4469  155.3959 C.ar    1  UNL1        0.0018
     18 C         140.3813  146.2672  155.8102 C.ar    1  UNL1        0.0032
     19 C         139.9799  146.3292  157.2541 C.ar    1  UNL1        0.0392
     20 C         140.7640  145.5709  158.2837 C.ar    1  UNL1        0.1660
     21 O         140.6079  145.4420  159.7700 O.2     1  UNL1       -0.4237
     22 C         139.1022  143.2294  171.0832 C.3     1  UNL1        0.0310
     23 C         139.8193  142.3318  170.1187 C.ar    1  UNL1       -0.0216
     24 C         139.3951  140.9009  169.9685 C.ar    1  UNL1       -0.0026
     25 C         140.1121  140.0033  169.0041 C.ar    1  UNL1        0.0207
     26 C         141.2535  140.5366  168.1898 C.ar    1  UNL1        0.1072
     27 C         141.6777  141.9675  168.3400 C.ar    1  UNL1        0.0726
     28 C         140.9606  142.8651  169.3045 C.ar    1  UNL1        0.0018
     29 N         141.9705  139.6391  167.2254 N.ar    1  UNL1       -0.1477
     30 N         141.5272  139.3100  165.8307 N.ar    1  UNL1       -0.1447
     31 C         142.5395  138.3805  165.2297 C.ar    1  UNL1        0.1446
     32 C         143.6085  138.1351  166.2530 C.ar    1  UNL1        0.1446
     33 N         143.2568  138.9129  167.4864 N.ar    1  UNL1       -0.1447
@<TRIPOS>BOND
     1    22    23    1
     2    23    24   ar
     3    24    25   ar
     4    25    26   ar
     5    26    29    1
     6    29    30   ar
     7    30    31   ar
     8    31    32   ar
     9    32    33   ar
    10    26    27   ar
    11    27     1    1
    12     1     2    2
    13     1     3   am
    14     3     4    1
    15     4     5    1
    16     5     6    1
    17     5     7    1
    18     7     8    1
    19     8    13    1
    20    13    14   ar
    21    14    15   ar
    22    15    16   ar
    23    16    17   ar
    24    17    18   ar
    25    18    19   ar
    26    19    20   ar
    27    20    21   ar
    28     8     9    1
    29     9    10    1
    30    10    11    1
    31    10    12    1
    32    27    28   ar
    33    28    23   ar
    34    33    29   ar
    35    12     3    1
    36    10     5    1
    37    21    13   ar
    38    20    15   ar
@<TRIPOS>MOLECULE
*****
 33 38 0 0 0
SMALL
GASTEIGER

@<TRIPOS>ATOM
      1 C         140.0921  141.1178  166.4662 C.2     1  UNL1        0.2507
      2 O         139.2752  139.8822  166.7030 O.2     1  UNL1       -0.2698
      3 N         140.1625  141.7187  165.0936 N.am    1  UNL1       -0.2703
      4 C         139.4735  141.1985  163.8670 C.3     1  UNL1        0.1307
      5 C         139.8194  142.1036  162.7220 C.3     1  UNL1        0.2004
      6 F         138.9167  141.0239  162.2030 F       1  UNL1       -0.2336
      7 C         139.6073  142.3416  161.2563 C.3     1  UNL1        0.1321
      8 N         140.3789  143.5683  160.8694 N.pl3   1  UNL1       -0.2579
      9 C         141.0679  144.0885  162.0960 C.3     1  UNL1        0.1321
     10 C         140.7220  143.1834  163.2410 C.3     1  UNL1        0.2004
     11 F         141.6247  144.2631  163.7601 F       1  UNL1       -0.2336
     12 C         140.9341  142.9455  164.7067 C.3     1  UNL1        0.1307
     13 C         140.4493  144.1693  159.4968 C.ar    1  UNL1        0.2925
     14 N         141.1286  143.5653  158.3036 N.ar    1  UNL1       -0.1946
     15 C         140.9518  144.5025  157.1458 C.ar    1  UNL1        0.1202
     16 C         141.4071  144.4313  155.7184 C.ar    1  UNL1        0.0224
     17 C         141.0736  145.5434  154.7686 C.ar    1  UNL1        0.0018
     18 C         140.2850  146.7265  155.2462 C.ar    1  UNL1        0.0032
     19 C         139.8297  146.7977  156.6736 C.ar    1  UNL1        0.0392
     20 C         140.1632  145.6856  157.6235 C.ar    1  UNL1        0.1660
     21 O         139.8526  145.4797  159.0764 O.2     1  UNL1       -0.4237
     22 C         140.3060  144.5819  170.3333 C.3     1  UNL1        0.0310
     23 C         140.9456  143.4844  169.5355 C.ar    1  UNL1       -0.0216
     24 C         142.3318  143.0215  169.8735 C.ar    1  UNL1       -0.0026
     25 C         142.9714  141.9240  169.0757 C.ar    1  UNL1        0.0207
     26 C         142.2249  141.2894  167.9399 C.ar    1  UNL1        0.1072
     27 C         140.8387  141.7523  167.6019 C.ar    1  UNL1        0.0726
     28 C         140.1991  142.8498  168.3997 C.ar    1  UNL1        0.0018
     29 N         142.8645  140.1920  167.1422 N.ar    1  UNL1       -0.1477
     30 N         143.3112  140.2859  165.7133 N.ar    1  UNL1       -0.1447
     31 C         143.8925  138.9599  165.3213 C.ar    1  UNL1        0.1446
     32 C         143.8050  138.0464  166.5079 C.ar    1  UNL1        0.1446
     33 N         143.1697  138.8079  167.6332 N.ar    1  UNL1       -0.1447
@<TRIPOS>BOND
     1    22    23    1
     2    23    24   ar
     3    24    25   ar
     4    25    26   ar
     5    26    29    1
     6    29    30   ar
     7    30    31   ar
     8    31    32   ar
     9    32    33   ar
    10    26    27   ar
    11    27     1    1
    12     1     2    2
    13     1     3   am
    14     3     4    1
    15     4     5    1
    16     5     6    1
    17     5     7    1
    18     7     8    1
    19     8    13    1
    20    13    14   ar
    21    14    15   ar
    22    15    16   ar
    23    16    17   ar
    24    17    18   ar
    25    18    19   ar
    26    19    20   ar
    27    20    21   ar
    28     8     9    1
    29     9    10    1
    30    10    11    1
    31    10    12    1
    32    27    28   ar
    33    28    23   ar
    34    33    29   ar
    35    12     3    1
    36    10     5    1
    37    21    13   ar
    38    20    15   ar
@<TRIPOS>MOLECULE
*****
 33 38 0 0 0
SMALL
GASTEIGER

@<TRIPOS>ATOM
      1 C         141.0770  142.4334  166.0617 C.2     1  UNL1        0.2507
      2 O         139.8278  143.2493  166.2162 O.2     1  UNL1       -0.2698
      3 N         141.7066  142.2745  164.7096 N.am    1  UNL1       -0.2703
      4 C         141.2039  142.8691  163.4275 C.3     1  UNL1        0.1307
      5 C         142.1360  142.4552  162.3277 C.3     1  UNL1        0.2004
      6 F         141.0571  143.3056  161.7254 F       1  UNL1       -0.2336
      7 C         142.4015  142.5668  160.8556 C.3     1  UNL1        0.1321
      8 N         143.6444  141.7855  160.5481 N.pl3   1  UNL1       -0.2579
      9 C         144.1471  141.1909  161.8302 C.3     1  UNL1        0.1321
     10 C         143.2149  141.6048  162.9300 C.3     1  UNL1        0.2004
     11 F         144.2938  140.7543  163.5324 F       1  UNL1       -0.2336
     12 C         142.9495  141.4931  164.4021 C.3     1  UNL1        0.1307
     13 C         144.2740  141.6266  159.1959 C.ar    1  UNL1        0.2925
     14 N         144.0076  140.5153  158.2244 N.ar    1  UNL1       -0.1946
     15 C         144.8495  140.7529  157.0059 C.ar    1  UNL1        0.1202
     16 C         145.0014  139.9862  155.7257 C.ar    1  UNL1        0.0224
     17 C         145.9400  140.4777  154.6640 C.ar    1  UNL1        0.0018
     18 C         146.7269  141.7360  154.8825 C.ar    1  UNL1        0.0032
     19 C         146.5750  142.5027  156.1627 C.ar    1  UNL1        0.0392
     20 C         145.6363  142.0112  157.2244 C.ar    1  UNL1        0.1660
     21 O         145.2806  142.5511  158.5779 O.2     1  UNL1       -0.4237
     22 C         144.3840  142.5795  170.0671 C.3     1  UNL1        0.0310
     23 C         143.3500  141.8494  169.2621 C.ar    1  UNL1       -0.0216
     24 C         142.9356  140.4623  169.6549 C.ar    1  UNL1       -0.0026
     25 C         141.9017  139.7323  168.8499 C.ar    1  UNL1        0.0207
     26 C         141.2821  140.3893  167.6522 C.ar    1  UNL1        0.1072
     27 C         141.6965  141.7763  167.2594 C.ar    1  UNL1        0.0726
     28 C         142.7305  142.5064  168.0644 C.ar    1  UNL1        0.0018
     29 N         140.2482  139.6592  166.8473 N.ar    1  UNL1       -0.1477
     30 N         138.7981  139.5107  167.2014 N.ar    1  UNL1       -0.1447
     31 C         138.1365  138.7092  166.1199 C.ar    1  UNL1        0.1446
     32 C         139.1777  138.3622  165.0973 C.ar    1  UNL1        0.1446
     33 N         140.4827  138.9494  165.5469 N.ar    1  UNL1       -0.1447
@<TRIPOS>BOND
     1    22    23    1
     2    23    24   ar
     3    24    25   ar
     4    25    26   ar
     5    26    29    1
     6    29    30   ar
     7    30    31   ar
     8    31    32   ar
     9    32    33   ar
    10    26    27   ar
    11    27     1    1
    12     1     2    2
    13     1     3   am
    14     3     4    1
    15     4     5    1
    16     5     6    1
    17     5     7    1
    18     7     8    1
    19     8    13    1
    20    13    14   ar
    21    14    15   ar
    22    15    16   ar
    23    16    17   ar
    24    17    18   ar
    25    18    19   ar
    26    19    20   ar
    27    20    21   ar
    28     8     9    1
    29     9    10    1
    30    10    11    1
    31    10    12    1
    32    27    28   ar
    33    28    23   ar
    34    33    29   ar
    35    12     3    1
    36    10     5    1
    37    21    13   ar
    38    20    15   ar
@<TRIPOS>MOLECULE
*****
 33 38 0 0 0
SMALL
GASTEIGER

@<TRIPOS>ATOM
      1 C         143.3124  142.8495  163.7430 C.2     1  UNL1        0.2507
      2 O         144.2688  143.9907  163.5615 O.2     1  UNL1       -0.2698
      3 N         143.1461  141.8301  162.6553 N.am    1  UNL1       -0.2703
      4 C         143.8641  141.8207  161.3384 C.3     1  UNL1        0.1307
      5 C         143.3944  140.6260  160.5628 C.3     1  UNL1        0.2004
      6 F         144.4028  141.3551  159.7252 F       1  UNL1       -0.2336
      7 C         143.5478  139.8817  159.2695 C.3     1  UNL1        0.1321
      8 N         142.6343  138.6926  159.3077 N.pl3   1  UNL1       -0.2579
      9 C         141.9163  138.7019  160.6246 C.3     1  UNL1        0.1321
     10 C         142.3860  139.8968  161.4003 C.3     1  UNL1        0.2004
     11 F         141.3776  139.1677  162.2379 F       1  UNL1       -0.2336
     12 C         142.2325  140.6410  162.6935 C.3     1  UNL1        0.1307
     13 C         142.4680  137.6732  158.2200 C.ar    1  UNL1        0.2925
     14 N         141.4468  137.7138  157.1221 N.ar    1  UNL1       -0.1946
     15 C         141.6413  136.4999  156.2628 C.ar    1  UNL1        0.1202
     16 C         140.9266  136.0125  155.0374 C.ar    1  UNL1        0.0224
     17 C         141.3533  134.7342  154.3789 C.ar    1  UNL1        0.0018
     18 C         142.4948  133.9433  154.9457 C.ar    1  UNL1        0.0032
     19 C         143.2096  134.4306  156.1710 C.ar    1  UNL1        0.0392
     20 C         142.7829  135.7089  156.8296 C.ar    1  UNL1        0.1660
     21 O         143.2938  136.4341  158.0392 O.2     1  UNL1       -0.4237
     22 C         142.9990  141.4215  168.7293 C.3     1  UNL1        0.0310
     23 C         142.3656  142.0138  167.5053 C.ar    1  UNL1       -0.0216
     24 C         140.9420  142.4843  167.5506 C.ar    1  UNL1       -0.0026
     25 C         140.3086  143.0766  166.3267 C.ar    1  UNL1        0.0207
     26 C         141.0987  143.1983  165.0575 C.ar    1  UNL1        0.1072
     27 C         142.5223  142.7278  165.0122 C.ar    1  UNL1        0.0726
     28 C         143.1557  142.1355  166.2362 C.ar    1  UNL1        0.0018
     29 N         140.4652  143.7906  163.8336 N.ar    1  UNL1       -0.1477
     30 N         139.6028  143.0613  162.8465 N.ar    1  UNL1       -0.1447
     31 C         139.1875  144.0361  161.7847 C.ar    1  UNL1        0.1446
     32 C         139.7934  145.3679  162.1157 C.ar    1  UNL1        0.1446
     33 N         140.5830  145.2161  163.3819 N.ar    1  UNL1       -0.1447
@<TRIPOS>BOND
     1    22    23    1
     2    23    24   ar
     3    24    25   ar
     4    25    26   ar
     5    26    29    1
     6    29    30   ar
     7    30    31   ar
     8    31    32   ar
     9    32    33   ar
    10    26    27   ar
    11    27     1    1
    12     1     2    2
    13     1     3   am
    14     3     4    1
    15     4     5    1
    16     5     6    1
    17     5     7    1
    18     7     8    1
    19     8    13    1
    20    13    14   ar
    21    14    15   ar
    22    15    16   ar
    23    16    17   ar
    24    17    18   ar
    25    18    19   ar
    26    19    20   ar
    27    20    21   ar
    28     8     9    1
    29     9    10    1
    30    10    11    1
    31    10    12    1
    32    27    28   ar
    33    28    23   ar
    34    33    29   ar
    35    12     3    1
    36    10     5    1
    37    21    13   ar
    38    20    15   ar
@<TRIPOS>MOLECULE
*****
 33 38 0 0 0
SMALL
GASTEIGER

@<TRIPOS>ATOM
      1 C         142.8148  141.0619  165.1031 C.2     1  UNL1        0.2507
      2 O         144.1125  140.3153  165.1959 O.2     1  UNL1       -0.2698
      3 N         142.4640  141.8029  163.8470 N.am    1  UNL1       -0.2703
      4 C         143.3063  141.8873  162.6086 C.3     1  UNL1        0.1307
      5 C         142.5722  142.7262  161.6051 C.3     1  UNL1        0.2004
      6 F         143.8682  142.2920  160.9870 F       1  UNL1       -0.2336
      7 C         142.6390  143.2968  160.2195 C.3     1  UNL1        0.1321
      8 N         141.3844  144.0837  159.9811 N.pl3   1  UNL1       -0.2579
      9 C         140.5422  143.9993  161.2195 C.3     1  UNL1        0.1321
     10 C         141.2762  143.1603  162.2231 C.3     1  UNL1        0.2004
     11 F         139.9803  143.5945  162.8412 F       1  UNL1       -0.2336
     12 C         141.2094  142.5897  163.6087 C.3     1  UNL1        0.1307
     13 C         141.0336  144.8247  158.7250 C.ar    1  UNL1        0.2925
     14 N         141.6670  144.6286  157.3795 N.ar    1  UNL1       -0.1946
     15 C         141.0127  145.5747  156.4168 C.ar    1  UNL1        0.1202
     16 C         141.2278  145.8260  154.9538 C.ar    1  UNL1        0.0224
     17 C         140.4052  146.8582  154.2413 C.ar    1  UNL1        0.0018
     18 C         139.3674  147.6391  154.9918 C.ar    1  UNL1        0.0032
     19 C         139.1523  147.3877  156.4548 C.ar    1  UNL1        0.0392
     20 C         139.9749  146.3555  157.1673 C.ar    1  UNL1        0.1660
     21 O         139.9879  145.8920  158.5939 O.2     1  UNL1       -0.4237
     22 C         141.1933  143.1513  169.5758 C.3     1  UNL1        0.0310
     23 C         141.0571  142.1120  168.5027 C.ar    1  UNL1       -0.0216
     24 C         139.9740  141.0782  168.5930 C.ar    1  UNL1       -0.0026
     25 C         139.8378  140.0390  167.5200 C.ar    1  UNL1        0.0207
     26 C         140.7848  140.0335  166.3566 C.ar    1  UNL1        0.1072
     27 C         141.8679  141.0673  166.2664 C.ar    1  UNL1        0.0726
     28 C         142.0040  142.1066  167.3394 C.ar    1  UNL1        0.0018
     29 N         140.6486  138.9943  165.2836 N.ar    1  UNL1       -0.1477
     30 N         141.6359  137.9069  164.9789 N.ar    1  UNL1       -0.1447
     31 C         141.0987  137.1005  163.8339 C.ar    1  UNL1        0.1446
     32 C         139.7793  137.6895  163.4310 C.ar    1  UNL1        0.1446
     33 N         139.5012  138.8599  164.3269 N.ar    1  UNL1       -0.1447
@<TRIPOS>BOND
     1    22    23    1
     2    23    24   ar
     3    24    25   ar
     4    25    26   ar
     5    26    29    1
     6    29    30   ar
     7    30    31   ar
     8    31    32   ar
     9    32    33   ar
    10    26    27   ar
    11    27     1    1
    12     1     2    2
    13     1     3   am
    14     3     4    1
    15     4     5    1
    16     5     6    1
    17     5     7    1
    18     7     8    1
    19     8    13    1
    20    13    14   ar
    21    14    15   ar
    22    15    16   ar
    23    16    17   ar
    24    17    18   ar
    25    18    19   ar
    26    19    20   ar
    27    20    21   ar
    28     8     9    1
    29     9    10    1
    30    10    11    1
    31    10    12    1
    32    27    28   ar
    33    28    23   ar
    34    33    29   ar
    35    12     3    1
    36    10     5    1
    37    21    13   ar
    38    20    15   ar
@<TRIPOS>MOLECULE
*****
 33 38 0 0 0
SMALL
GASTEIGER

@<TRIPOS>ATOM
      1 C         142.3310  143.4537  162.2599 C.2     1  UNL1        0.2507
      2 O         143.0404  144.7169  161.8712 O.2     1  UNL1       -0.2698
      3 N         142.3252  142.2792  161.3268 N.am    1  UNL1       -0.2703
      4 C         142.9817  142.2203  159.9794 C.3     1  UNL1        0.1307
      5 C         142.7241  140.8622  159.3972 C.3     1  UNL1        0.2004
      6 F         143.5398  141.6428  158.4096 F       1  UNL1       -0.2336
      7 C         142.9706  139.9865  158.2046 C.3     1  UNL1        0.1321
      8 N         142.3073  138.6646  158.4551 N.pl3   1  UNL1       -0.2579
      9 C         141.6508  138.7235  159.8026 C.3     1  UNL1        0.1321
     10 C         141.9084  140.0817  160.3848 C.3     1  UNL1        0.2004
     11 F         141.0927  139.3011  161.3724 F       1  UNL1       -0.2336
     12 C         141.6619  140.9574  161.5773 C.3     1  UNL1        0.1307
     13 C         142.3014  137.4902  157.5221 C.ar    1  UNL1        0.2925
     14 N         141.2999  137.2322  156.4356 N.ar    1  UNL1       -0.1946
     15 C         141.6756  135.9501  155.7537 C.ar    1  UNL1        0.1202
     16 C         141.0536  135.2002  154.6132 C.ar    1  UNL1        0.0224
     17 C         141.6655  133.9159  154.1376 C.ar    1  UNL1        0.0018
     18 C         142.8992  133.3815  154.8026 C.ar    1  UNL1        0.0032
     19 C         143.5212  134.1313  155.9431 C.ar    1  UNL1        0.0392
     20 C         142.9093  135.4156  156.4187 C.ar    1  UNL1        0.1660
     21 O         143.2961  136.3675  157.5116 O.2     1  UNL1       -0.4237
     22 C         138.3690  144.7847  165.3472 C.3     1  UNL1        0.0310
     23 C         139.6465  144.0304  165.1253 C.ar    1  UNL1       -0.0216
     24 C         140.2205  143.1875  166.2253 C.ar    1  UNL1       -0.0026
     25 C         141.4979  142.4333  166.0035 C.ar    1  UNL1        0.0207
     26 C         142.2015  142.5220  164.6817 C.ar    1  UNL1        0.1072
     27 C         141.6276  143.3649  163.5817 C.ar    1  UNL1        0.0726
     28 C         140.3500  144.1192  163.8035 C.ar    1  UNL1        0.0018
     29 N         143.4790  141.7678  164.4599 N.ar    1  UNL1       -0.1477
     30 N         143.6524  140.2807  164.5526 N.ar    1  UNL1       -0.1447
     31 C         145.0879  139.9620  164.2565 C.ar    1  UNL1        0.1446
     32 C         145.8017  141.2522  163.9807 C.ar    1  UNL1        0.1446
     33 N         144.8073  142.3682  164.1065 N.ar    1  UNL1       -0.1447
@<TRIPOS>BOND
     1    22    23    1
     2    23    24   ar
     3    24    25   ar
     4    25    26   ar
     5    26    29    1
     6    29    30   ar
     7    30    31   ar
     8    31    32   ar
     9    32    33   ar
    10    26    27   ar
    11    27     1    1
    12     1     2    2
    13     1     3   am
    14     3     4    1
    15     4     5    1
    16     5     6    1
    17     5     7    1
    18     7     8    1
    19     8    13    1
    20    13    14   ar
    21    14    15   ar
    22    15    16   ar
    23    16    17   ar
    24    17    18   ar
    25    18    19   ar
    26    19    20   ar
    27    20    21   ar
    28     8     9    1
    29     9    10    1
    30    10    11    1
    31    10    12    1
    32    27    28   ar
    33    28    23   ar
    34    33    29   ar
    35    12     3    1
    36    10     5    1
    37    21    13   ar
    38    20    15   ar
@<TRIPOS>MOLECULE
*****
 33 38 0 0 0
SMALL
GASTEIGER

@<TRIPOS>ATOM
      1 C         140.4934  138.2134  163.5565 C.2     1  UNL1        0.2507
      2 O         141.6154  137.2189  163.5145 O.2     1  UNL1       -0.2698
      3 N         139.9117  138.7424  162.2791 N.am    1  UNL1       -0.2703
      4 C         140.3463  138.3712  160.8922 C.3     1  UNL1        0.1307
      5 C         139.4966  139.1347  159.9202 C.3     1  UNL1        0.2004
      6 F         140.4564  138.2916  159.1341 F       1  UNL1       -0.2336
      7 C         139.2399  139.3772  158.4624 C.3     1  UNL1        0.1321
      8 N         138.1215  140.3701  158.3474 N.pl3   1  UNL1       -0.2579
      9 C         137.6870  140.7413  159.7343 C.3     1  UNL1        0.1321
     10 C         138.5367  139.9778  160.7063 C.3     1  UNL1        0.2004
     11 F         137.5769  140.8209  161.4924 F       1  UNL1       -0.2336
     12 C         138.7933  139.7353  162.1641 C.3     1  UNL1        0.1307
     13 C         137.5399  140.8990  157.0700 C.ar    1  UNL1        0.2925
     14 N         136.3344  140.3583  156.3597 N.ar    1  UNL1       -0.1946
     15 C         136.1111  141.1866  155.1292 C.ar    1  UNL1        0.1202
     16 C         135.0736  141.1183  154.0480 C.ar    1  UNL1        0.0224
     17 C         135.1036  142.1027  152.9166 C.ar    1  UNL1        0.0018
     18 C         136.1710  143.1553  152.8664 C.ar    1  UNL1        0.0032
     19 C         137.2085  143.2236  153.9476 C.ar    1  UNL1        0.0392
     20 C         137.1785  142.2393  155.0790 C.ar    1  UNL1        0.1660
     21 O         138.0615  142.0615  156.2784 O.2     1  UNL1       -0.4237
     22 C         137.0182  137.7942  167.3968 C.3     1  UNL1        0.0310
     23 C         138.2154  138.4695  166.7961 C.ar    1  UNL1       -0.0216
     24 C         138.8722  139.6104  167.5151 C.ar    1  UNL1       -0.0026
     25 C         140.0694  140.2857  166.9145 C.ar    1  UNL1        0.0207
     26 C         140.6098  139.8201  165.5949 C.ar    1  UNL1        0.1072
     27 C         139.9530  138.6791  164.8760 C.ar    1  UNL1        0.0726
     28 C         138.7558  138.0038  165.4766 C.ar    1  UNL1        0.0018
     29 N         141.8070  140.4953  164.9944 N.ar    1  UNL1       -0.1477
     30 N         143.2386  140.0956  165.1965 N.ar    1  UNL1       -0.1447
     31 C         144.0991  141.0422  164.4133 C.ar    1  UNL1        0.1446
     32 C         143.1994  142.0269  163.7271 C.ar    1  UNL1        0.1446
     33 N         141.7828  141.6889  164.0862 N.ar    1  UNL1       -0.1447
@<TRIPOS>BOND
     1    22    23    1
     2    23    24   ar
     3    24    25   ar
     4    25    26   ar
     5    26    29    1
     6    29    30   ar
     7    30    31   ar
     8    31    32   ar
     9    32    33   ar
    10    26    27   ar
    11    27     1    1
    12     1     2    2
    13     1     3   am
    14     3     4    1
    15     4     5    1
    16     5     6    1
    17     5     7    1
    18     7     8    1
    19     8    13    1
    20    13    14   ar
    21    14    15   ar
    22    15    16   ar
    23    16    17   ar
    24    17    18   ar
    25    18    19   ar
    26    19    20   ar
    27    20    21   ar
    28     8     9    1
    29     9    10    1
    30    10    11    1
    31    10    12    1
    32    27    28   ar
    33    28    23   ar
    34    33    29   ar
    35    12     3    1
    36    10     5    1
    37    21    13   ar
    38    20    15   ar
@<TRIPOS>MOLECULE
*****
 33 38 0 0 0
SMALL
GASTEIGER

@<TRIPOS>ATOM
      1 C         138.3644  141.7071  163.0182 C.2     1  UNL1        0.2507
      2 O         137.6198  143.0054  162.9185 O.2     1  UNL1       -0.2698
      3 N         138.6850  140.9291  161.7764 N.am    1  UNL1       -0.2703
      4 C         138.3275  141.3212  160.3734 C.3     1  UNL1        0.1307
      5 C         138.8409  140.2569  159.4496 C.3     1  UNL1        0.2004
      6 F         138.1662  141.3068  158.6176 F       1  UNL1       -0.2336
      7 C         138.9373  139.8413  158.0116 C.3     1  UNL1        0.1321
      8 N         139.6716  138.5346  157.9548 N.pl3   1  UNL1       -0.2579
      9 C         140.0290  138.1425  159.3579 C.3     1  UNL1        0.1321
     10 C         139.5156  139.2069  160.2817 C.3     1  UNL1        0.2004
     11 F         140.1904  138.1569  161.1138 F       1  UNL1       -0.2336
     12 C         139.4192  139.6224  161.7197 C.3     1  UNL1        0.1307
     13 C         139.9922  137.7566  156.7131 C.ar    1  UNL1        0.2925
     14 N         139.2014  137.7650  155.4385 N.ar    1  UNL1       -0.1946
     15 C         139.8803  136.8472  154.4656 C.ar    1  UNL1        0.1202
     16 C         139.5527  136.4613  153.0536 C.ar    1  UNL1        0.0224
     17 C         140.4355  135.4996  152.3149 C.ar    1  UNL1        0.0018
     18 C         141.6460  134.9238  152.9882 C.ar    1  UNL1        0.0032
     19 C         141.9736  135.3097  154.4002 C.ar    1  UNL1        0.0392
     20 C         141.0908  136.2714  155.1389 C.ar    1  UNL1        0.1660
     21 O         141.1599  136.8334  156.5279 O.2     1  UNL1       -0.4237
     22 C         137.6672  138.4519  167.0079 C.3     1  UNL1        0.0310
     23 C         138.4398  139.5593  166.3545 C.ar    1  UNL1       -0.0216
     24 C         139.6364  140.1463  167.0426 C.ar    1  UNL1       -0.0026
     25 C         140.4090  141.2536  166.3892 C.ar    1  UNL1        0.0207
     26 C         139.9850  141.7739  165.0477 C.ar    1  UNL1        0.1072
     27 C         138.7884  141.1869  164.3596 C.ar    1  UNL1        0.0726
     28 C         138.0158  140.0795  165.0131 C.ar    1  UNL1        0.0018
     29 N         140.7576  142.8812  164.3943 N.ar    1  UNL1       -0.1477
     30 N         140.5379  144.3507  164.6006 N.ar    1  UNL1       -0.1447
     31 C         141.5301  145.0911  163.7537 C.ar    1  UNL1        0.1446
     32 C         142.3631  144.0793  163.0240 C.ar    1  UNL1        0.1446
     33 N         141.8857  142.7135  163.4200 N.ar    1  UNL1       -0.1447
@<TRIPOS>BOND
     1    22    23    1
     2    23    24   ar
     3    24    25   ar
     4    25    26   ar
     5    26    29    1
     6    29    30   ar
     7    30    31   ar
     8    31    32   ar
     9    32    33   ar
    10    26    27   ar
    11    27     1    1
    12     1     2    2
    13     1     3   am
    14     3     4    1
    15     4     5    1
    16     5     6    1
    17     5     7    1
    18     7     8    1
    19     8    13    1
    20    13    14   ar
    21    14    15   ar
    22    15    16   ar
    23    16    17   ar
    24    17    18   ar
    25    18    19   ar
    26    19    20   ar
    27    20    21   ar
    28     8     9    1
    29     9    10    1
    30    10    11    1
    31    10    12    1
    32    27    28   ar
    33    28    23   ar
    34    33    29   ar
    35    12     3    1
    36    10     5    1
    37    21    13   ar
    38    20    15   ar
@<TRIPOS>MOLECULE
*****
 33 38 0 0 0
SMALL
GASTEIGER

@<TRIPOS>ATOM
      1 C         140.0868  142.3626  164.3045 C.2     1  UNL1        0.2507
      2 O         139.1206  143.5052  164.2013 O.2     1  UNL1       -0.2698
      3 N         140.3509  141.4935  163.1108 N.am    1  UNL1       -0.2703
      4 C         139.7269  141.6442  161.7551 C.3     1  UNL1        0.1307
      5 C         140.2757  140.5651  160.8696 C.3     1  UNL1        0.2004
      6 F         139.3124  141.3828  160.0612 F       1  UNL1       -0.2336
      7 C         140.2292  139.9912  159.4845 C.3     1  UNL1        0.1321
      8 N         141.1637  138.8189  159.4368 N.pl3   1  UNL1       -0.2579
      9 C         141.7878  138.6682  160.7925 C.3     1  UNL1        0.1321
     10 C         141.2389  139.7474  161.6780 C.3     1  UNL1        0.2004
     11 F         142.2022  138.9297  162.4864 F       1  UNL1       -0.2336
     12 C         141.2854  140.3212  163.0631 C.3     1  UNL1        0.1307
     13 C         141.4278  137.9498  158.2431 C.ar    1  UNL1        0.2925
     14 N         140.4362  137.5929  157.1757 N.ar    1  UNL1       -0.1946
     15 C         141.1254  136.7076  156.1801 C.ar    1  UNL1        0.1202
     16 C         140.6454  136.0501  154.9202 C.ar    1  UNL1        0.0224
     17 C         141.5828  135.2024  154.1125 C.ar    1  UNL1        0.0018
     18 C         143.0004  135.0121  154.5646 C.ar    1  UNL1        0.0032
     19 C         143.4804  135.6696  155.8244 C.ar    1  UNL1        0.0392
     20 C         142.5430  136.5173  156.6322 C.ar    1  UNL1        0.1660
     21 O         142.7298  137.2851  157.9072 O.2     1  UNL1       -0.4237
     22 C         140.0338  140.4425  169.1326 C.3     1  UNL1        0.0310
     23 C         140.7624  141.1289  168.0155 C.ar    1  UNL1       -0.0216
     24 C         142.1932  141.5418  168.1954 C.ar    1  UNL1       -0.0026
     25 C         142.9219  142.2282  167.0784 C.ar    1  UNL1        0.0207
     26 C         142.2198  142.5018  165.7813 C.ar    1  UNL1        0.1072
     27 C         140.7890  142.0890  165.6014 C.ar    1  UNL1        0.0726
     28 C         140.0603  141.4025  166.7186 C.ar    1  UNL1        0.0018
     29 N         142.9485  143.1882  164.6643 N.ar    1  UNL1       -0.1477
     30 N         143.9818  142.5664  163.7723 N.ar    1  UNL1       -0.1447
     31 C         144.4437  143.6108  162.7998 C.ar    1  UNL1        0.1446
     32 C         143.6959  144.8782  163.0908 C.ar    1  UNL1        0.1446
     33 N         142.7718  144.6170  164.2431 N.ar    1  UNL1       -0.1447
@<TRIPOS>BOND
     1    22    23    1
     2    23    24   ar
     3    24    25   ar
     4    25    26   ar
     5    26    29    1
     6    29    30   ar
     7    30    31   ar
     8    31    32   ar
     9    32    33   ar
    10    26    27   ar
    11    27     1    1
    12     1     2    2
    13     1     3   am
    14     3     4    1
    15     4     5    1
    16     5     6    1
    17     5     7    1
    18     7     8    1
    19     8    13    1
    20    13    14   ar
    21    14    15   ar
    22    15    16   ar
    23    16    17   ar
    24    17    18   ar
    25    18    19   ar
    26    19    20   ar
    27    20    21   ar
    28     8     9    1
    29     9    10    1
    30    10    11    1
    31    10    12    1
    32    27    28   ar
    33    28    23   ar
    34    33    29   ar
    35    12     3    1
    36    10     5    1
    37    21    13   ar
    38    20    15   ar
