@<TRIPOS>MOLECULE
*****
 36 38 0 0 0
SMALL
GASTEIGER

@<TRIPOS>ATOM
      1 N         142.0733  138.3001  164.2716 N.3     1  UNL1       -0.1454
      2 S         141.7696  139.0181  165.5532 S.O2    1  UNL1        0.0639
      3 O         142.9409  138.3468  166.2069 O.2     1  UNL1       -0.1528
      4 O         140.5982  139.6894  164.8995 O.2     1  UNL1       -0.1528
      5 C         141.4658  139.7360  166.8347 C.ar    1  UNL1        0.1224
      6 C         140.0480  139.8555  167.3095 C.ar    1  UNL1        0.0230
      7 C         139.7443  140.5735  168.5911 C.ar    1  UNL1        0.0385
      8 C         140.8583  141.1719  169.3977 C.ar    1  UNL1        0.1444
      9 C         142.2762  141.0525  168.9229 C.ar    1  UNL1        0.0385
     10 C         142.5799  140.3345  167.6413 C.ar    1  UNL1        0.0230
     11 O         140.5545  141.8899  170.6792 O.3     1  UNL1       -0.4236
     12 C         139.9562  143.2650  170.6449 C.3     1  UNL1        0.5087
     13 F         138.7606  143.5840  171.4927 F       1  UNL1       -0.1550
     14 F         140.5534  144.3210  169.7628 F       1  UNL1       -0.1550
     15 C         141.1440  137.2347  163.7704 C.3     1  UNL1        0.1375
     16 O         138.7379  137.5904  162.8571 O.co2   1  UNL1       -0.5477
     17 C         140.2186  137.5243  162.6260 C.2     1  UNL1        0.0683
     18 O         140.7738  137.7479  161.2507 O.co2   1  UNL1       -0.5477
     19 C         143.3064  138.6476  163.4914 C.3     1  UNL1        0.1225
     20 C         143.7322  140.0799  163.3604 C.ar    1  UNL1       -0.0045
     21 C         145.0694  140.5155  163.8823 C.ar    1  UNL1       -0.0029
     22 C         145.4953  141.9478  163.7513 C.ar    1  UNL1       -0.0003
     23 C         144.5840  142.9445  163.0985 C.ar    1  UNL1        0.0001
     24 C         143.2469  142.5089  162.5767 C.ar    1  UNL1        0.0026
     25 C         142.8210  141.0766  162.7076 C.ar    1  UNL1       -0.0028
     26 C         142.3355  143.5057  161.9239 C.ar    1  UNL1        0.0343
     27 C         142.1948  143.5277  160.4307 C.ar    1  UNL1        0.0030
     28 C         141.2835  144.5244  159.7779 C.ar    1  UNL1        0.0002
     29 C         140.5129  145.4991  160.6184 C.ar    1  UNL1        0.0031
     30 C         140.6537  145.4770  162.1116 C.ar    1  UNL1        0.0372
     31 C         141.5650  144.4803  162.7643 C.ar    1  UNL1        0.1467
     32 O         141.7058  144.4582  164.2576 O.3     1  UNL1       -0.4045
     33 C         140.7872  143.6088  165.0850 C.3     1  UNL1        0.5753
     34 F         139.8686  142.7594  165.9124 F       1  UNL1       -0.1328
     35 F         139.6459  144.5263  164.7599 F       1  UNL1       -0.1328
     36 F         141.9285  142.6913  165.4101 F       1  UNL1       -0.1328
@<TRIPOS>UNITY_ATOM_ATTR
16 1
charge -1
@<TRIPOS>BOND
     1    16    17   ar
     2    17    18   ar
     3    17    15    1
     4    15     1    1
     5     1    19    1
     6    19    20    1
     7    20    21   ar
     8    21    22   ar
     9    22    23   ar
    10    23    24   ar
    11    24    26    1
    12    26    27   ar
    13    27    28   ar
    14    28    29   ar
    15    29    30   ar
    16    30    31   ar
    17    31    32    1
    18    32    33    1
    19    33    34    1
    20    33    35    1
    21    33    36    1
    22    24    25   ar
    23     1     2    1
    24     2     3    2
    25     2     4    2
    26     2     5    1
    27     5     6   ar
    28     6     7   ar
    29     7     8   ar
    30     8    11    1
    31    11    12    1
    32    12    13    1
    33    12    14    1
    34     8     9   ar
    35     9    10   ar
    36    25    20   ar
    37    10     5   ar
    38    31    26   ar
@<TRIPOS>MOLECULE
*****
 36 38 0 0 0
SMALL
GASTEIGER

@<TRIPOS>ATOM
      1 N         143.5349  139.8825  161.1172 N.3     1  UNL1       -0.1454
      2 S         142.4791  139.3413  162.0351 S.O2    1  UNL1        0.0639
      3 O         141.4432  140.1649  161.3291 O.2     1  UNL1       -0.1528
      4 O         143.5151  138.5177  162.7411 O.2     1  UNL1       -0.1528
      5 C         141.4234  138.8001  162.9529 C.ar    1  UNL1        0.1224
      6 C         141.7597  138.4868  164.3807 C.ar    1  UNL1        0.0230
      7 C         140.7040  137.9455  165.2986 C.ar    1  UNL1        0.0385
      8 C         139.3119  137.7176  164.7886 C.ar    1  UNL1        0.1444
      9 C         138.9755  138.0309  163.3607 C.ar    1  UNL1        0.0385
     10 C         140.0312  138.5722  162.4429 C.ar    1  UNL1        0.0230
     11 O         138.2561  137.1764  165.7065 O.3     1  UNL1       -0.4236
     12 C         137.6458  138.0618  166.7522 C.3     1  UNL1        0.5087
     13 F         136.6967  137.4864  167.7613 F       1  UNL1       -0.1550
     14 F         137.9845  139.5226  166.7889 F       1  UNL1       -0.1550
     15 C         143.5743  139.4496  159.6815 C.3     1  UNL1        0.1375
     16 O         144.8119  140.1338  157.5021 O.co2   1  UNL1       -0.5477
     17 C         143.8440  140.4554  158.6020 C.2     1  UNL1        0.0683
     18 O         143.1459  141.7829  158.6223 O.co2   1  UNL1       -0.5477
     19 C         144.5512  140.8566  161.6349 C.3     1  UNL1        0.1225
     20 C         144.1149  142.0206  162.4745 C.ar    1  UNL1       -0.0045
     21 C         144.2796  143.4200  161.9601 C.ar    1  UNL1       -0.0029
     22 C         143.8433  144.5839  162.7996 C.ar    1  UNL1       -0.0003
     23 C         143.2422  144.3484  164.1537 C.ar    1  UNL1        0.0001
     24 C         143.0775  142.9491  164.6681 C.ar    1  UNL1        0.0026
     25 C         143.5138  141.7851  163.8285 C.ar    1  UNL1       -0.0028
     26 C         142.4764  142.7136  166.0221 C.ar    1  UNL1        0.0343
     27 C         143.3593  142.3718  167.1855 C.ar    1  UNL1        0.0030
     28 C         142.7582  142.1364  168.5394 C.ar    1  UNL1        0.0002
     29 C         141.2742  142.2426  168.7299 C.ar    1  UNL1        0.0031
     30 C         140.3912  142.5844  167.5665 C.ar    1  UNL1        0.0372
     31 C         140.9923  142.8198  166.2126 C.ar    1  UNL1        0.1467
     32 O         140.1094  143.1616  165.0491 O.3     1  UNL1       -0.4045
     33 C         138.9015  142.3230  164.7525 C.3     1  UNL1        0.5753
     34 F         137.6937  141.4845  164.4559 F       1  UNL1       -0.1328
     35 F         138.0238  143.5276  164.9212 F       1  UNL1       -0.1328
     36 F         139.7793  141.1184  164.5837 F       1  UNL1       -0.1328
@<TRIPOS>UNITY_ATOM_ATTR
16 1
charge -1
@<TRIPOS>BOND
     1    16    17   ar
     2    17    18   ar
     3    17    15    1
     4    15     1    1
     5     1    19    1
     6    19    20    1
     7    20    21   ar
     8    21    22   ar
     9    22    23   ar
    10    23    24   ar
    11    24    26    1
    12    26    27   ar
    13    27    28   ar
    14    28    29   ar
    15    29    30   ar
    16    30    31   ar
    17    31    32    1
    18    32    33    1
    19    33    34    1
    20    33    35    1
    21    33    36    1
    22    24    25   ar
    23     1     2    1
    24     2     3    2
    25     2     4    2
    26     2     5    1
    27     5     6   ar
    28     6     7   ar
    29     7     8   ar
    30     8    11    1
    31    11    12    1
    32    12    13    1
    33    12    14    1
    34     8     9   ar
    35     9    10   ar
    36    25    20   ar
    37    10     5   ar
    38    31    26   ar
@<TRIPOS>MOLECULE
*****
 36 38 0 0 0
SMALL
GASTEIGER

@<TRIPOS>ATOM
      1 N         142.4166  138.6675  163.3108 N.3     1  UNL1       -0.1454
      2 S         142.0647  138.9844  164.7341 S.O2    1  UNL1        0.0639
      3 O         142.6820  140.3432  164.5842 O.2     1  UNL1       -0.1528
      4 O         141.4474  137.6255  164.8840 O.2     1  UNL1       -0.1528
      5 C         141.7128  139.3012  166.1573 C.ar    1  UNL1        0.1224
      6 C         140.3047  139.6725  166.5170 C.ar    1  UNL1        0.0230
      7 C         139.9528  139.9893  167.9403 C.ar    1  UNL1        0.0385
      8 C         141.0090  139.9350  169.0039 C.ar    1  UNL1        0.1444
      9 C         142.4172  139.5637  168.6443 C.ar    1  UNL1        0.0385
     10 C         142.7691  139.2468  167.2210 C.ar    1  UNL1        0.0230
     11 O         140.6571  140.2518  170.4272 O.3     1  UNL1       -0.4236
     12 C         140.6865  141.6722  170.9087 C.3     1  UNL1        0.5087
     13 F         139.5095  142.5703  170.6676 F       1  UNL1       -0.1550
     14 F         141.8927  142.1944  171.6312 F       1  UNL1       -0.1550
     15 C         143.8359  138.7965  162.8425 C.3     1  UNL1        0.1375
     16 O         144.2153  138.8027  160.2723 O.co2   1  UNL1       -0.5477
     17 C         144.1433  139.5400  161.5766 C.2     1  UNL1        0.0683
     18 O         144.3788  141.0209  161.6150 O.co2   1  UNL1       -0.5477
     19 C         141.3494  138.2216  162.3557 C.3     1  UNL1        0.1225
     20 C         140.2076  139.1370  162.0264 C.ar    1  UNL1       -0.0045
     21 C         138.8369  138.5731  161.7950 C.ar    1  UNL1       -0.0029
     22 C         137.6952  139.4884  161.4656 C.ar    1  UNL1       -0.0003
     23 C         137.9240  140.9677  161.3677 C.ar    1  UNL1        0.0001
     24 C         139.2946  141.5315  161.5991 C.ar    1  UNL1        0.0026
     25 C         140.4363  140.6162  161.9284 C.ar    1  UNL1       -0.0028
     26 C         139.5234  143.0108  161.5011 C.ar    1  UNL1        0.0343
     27 C         140.1143  143.5973  160.2534 C.ar    1  UNL1        0.0030
     28 C         140.3431  145.0765  160.1556 C.ar    1  UNL1        0.0002
     29 C         139.9810  145.9691  161.3054 C.ar    1  UNL1        0.0031
     30 C         139.3902  145.3826  162.5531 C.ar    1  UNL1        0.0372
     31 C         139.1613  143.9034  162.6510 C.ar    1  UNL1        0.1467
     32 O         138.5705  143.3168  163.8987 O.3     1  UNL1       -0.4045
     33 C         139.2971  143.4450  165.2047 C.3     1  UNL1        0.5753
     34 F         140.0237  143.5732  166.5107 F       1  UNL1       -0.1328
     35 F         140.2256  142.3398  164.7966 F       1  UNL1       -0.1328
     36 F         138.3686  144.5501  165.6128 F       1  UNL1       -0.1328
@<TRIPOS>UNITY_ATOM_ATTR
16 1
charge -1
@<TRIPOS>BOND
     1    16    17   ar
     2    17    18   ar
     3    17    15    1
     4    15     1    1
     5     1    19    1
     6    19    20    1
     7    20    21   ar
     8    21    22   ar
     9    22    23   ar
    10    23    24   ar
    11    24    26    1
    12    26    27   ar
    13    27    28   ar
    14    28    29   ar
    15    29    30   ar
    16    30    31   ar
    17    31    32    1
    18    32    33    1
    19    33    34    1
    20    33    35    1
    21    33    36    1
    22    24    25   ar
    23     1     2    1
    24     2     3    2
    25     2     4    2
    26     2     5    1
    27     5     6   ar
    28     6     7   ar
    29     7     8   ar
    30     8    11    1
    31    11    12    1
    32    12    13    1
    33    12    14    1
    34     8     9   ar
    35     9    10   ar
    36    25    20   ar
    37    10     5   ar
    38    31    26   ar
@<TRIPOS>MOLECULE
*****
 36 38 0 0 0
SMALL
GASTEIGER

@<TRIPOS>ATOM
      1 N         138.9003  138.9980  162.3043 N.3     1  UNL1       -0.1454
      2 S         138.9342  139.1990  163.7903 S.O2    1  UNL1        0.0639
      3 O         138.5497  140.6370  163.6046 O.2     1  UNL1       -0.1528
      4 O         139.3186  137.7611  163.9760 O.2     1  UNL1       -0.1528
      5 C         138.9681  139.4000  165.2764 C.ar    1  UNL1        0.1224
      6 C         140.0067  140.2921  165.8891 C.ar    1  UNL1        0.0230
      7 C         140.0406  140.4931  167.3752 C.ar    1  UNL1        0.0385
      8 C         139.0359  139.8020  168.2486 C.ar    1  UNL1        0.1444
      9 C         137.9972  138.9099  167.6359 C.ar    1  UNL1        0.0385
     10 C         137.9633  138.7089  166.1499 C.ar    1  UNL1        0.0230
     11 O         139.0698  140.0030  169.7347 O.3     1  UNL1       -0.4236
     12 C         140.3829  140.0177  170.4597 C.3     1  UNL1        0.5087
     13 F         141.4541  139.0343  170.0914 F       1  UNL1       -0.1550
     14 F         140.6249  141.0157  171.5531 F       1  UNL1       -0.1550
     15 C         137.7415  139.5146  161.5038 C.3     1  UNL1        0.1375
     16 O         138.7985  141.6337  160.4351 O.co2   1  UNL1       -0.5477
     17 C         137.9857  140.3799  160.3032 C.2     1  UNL1        0.0683
     18 O         137.4171  139.9914  158.9706 O.co2   1  UNL1       -0.5477
     19 C         140.0250  138.2806  161.6186 C.3     1  UNL1        0.1225
     20 C         141.3498  138.9607  161.4394 C.ar    1  UNL1       -0.0045
     21 C         142.3606  138.3947  160.4864 C.ar    1  UNL1       -0.0029
     22 C         143.6855  139.0749  160.3072 C.ar    1  UNL1       -0.0003
     23 C         143.9996  140.3210  161.0810 C.ar    1  UNL1        0.0001
     24 C         142.9889  140.8868  162.0339 C.ar    1  UNL1        0.0026
     25 C         141.6640  140.2067  162.2131 C.ar    1  UNL1       -0.0028
     26 C         143.3030  142.1329  162.8077 C.ar    1  UNL1        0.0343
     27 C         142.7618  143.4554  162.3517 C.ar    1  UNL1        0.0030
     28 C         143.0759  144.7014  163.1255 C.ar    1  UNL1        0.0002
     29 C         143.9312  144.6249  164.3553 C.ar    1  UNL1        0.0031
     30 C         144.4725  143.3024  164.8114 C.ar    1  UNL1        0.0372
     31 C         144.1583  142.0564  164.0376 C.ar    1  UNL1        0.1467
     32 O         144.6996  140.7338  164.4936 O.3     1  UNL1       -0.4045
     33 C         143.7777  139.7113  165.0891 C.3     1  UNL1        0.5753
     34 F         142.8558  138.6888  165.6845 F       1  UNL1       -0.1328
     35 F         144.2235  138.7119  164.0631 F       1  UNL1       -0.1328
     36 F         143.3319  140.7106  166.1150 F       1  UNL1       -0.1328
@<TRIPOS>UNITY_ATOM_ATTR
16 1
charge -1
@<TRIPOS>BOND
     1    16    17   ar
     2    17    18   ar
     3    17    15    1
     4    15     1    1
     5     1    19    1
     6    19    20    1
     7    20    21   ar
     8    21    22   ar
     9    22    23   ar
    10    23    24   ar
    11    24    26    1
    12    26    27   ar
    13    27    28   ar
    14    28    29   ar
    15    29    30   ar
    16    30    31   ar
    17    31    32    1
    18    32    33    1
    19    33    34    1
    20    33    35    1
    21    33    36    1
    22    24    25   ar
    23     1     2    1
    24     2     3    2
    25     2     4    2
    26     2     5    1
    27     5     6   ar
    28     6     7   ar
    29     7     8   ar
    30     8    11    1
    31    11    12    1
    32    12    13    1
    33    12    14    1
    34     8     9   ar
    35     9    10   ar
    36    25    20   ar
    37    10     5   ar
    38    31    26   ar
@<TRIPOS>MOLECULE
*****
 36 38 0 0 0
SMALL
GASTEIGER

@<TRIPOS>ATOM
      1 N         142.1960  142.0520  167.5619 N.3     1  UNL1       -0.1454
      2 S         142.5856  141.2215  166.3751 S.O2    1  UNL1        0.0639
      3 O         142.0348  139.9999  167.0491 O.2     1  UNL1       -0.1528
      4 O         143.1365  142.4432  165.7012 O.2     1  UNL1       -0.1528
      5 C         142.9753  140.3911  165.1883 C.ar    1  UNL1        0.1224
      6 C         144.0840  140.8460  164.2861 C.ar    1  UNL1        0.0230
      7 C         144.4736  140.0155  163.0993 C.ar    1  UNL1        0.0385
      8 C         143.7547  138.7302  162.8147 C.ar    1  UNL1        0.1444
      9 C         142.6460  138.2753  163.7169 C.ar    1  UNL1        0.0385
     10 C         142.2563  139.1057  164.9037 C.ar    1  UNL1        0.0230
     11 O         144.1444  137.8998  161.6279 O.3     1  UNL1       -0.4236
     12 C         143.5489  138.1893  160.2819 C.3     1  UNL1        0.5087
     13 F         143.5343  139.5935  159.7545 F       1  UNL1       -0.1550
     14 F         142.9681  137.0746  159.4633 F       1  UNL1       -0.1550
     15 C         143.2296  142.4411  168.5770 C.3     1  UNL1        0.1375
     16 O         142.3686  141.2259  170.7058 O.co2   1  UNL1       -0.5477
     17 C         142.8768  142.4674  170.0346 C.2     1  UNL1        0.0683
     18 O         143.0321  143.7352  170.8211 O.co2   1  UNL1       -0.5477
     19 C         140.7727  142.4932  167.7338 C.3     1  UNL1        0.1225
     20 C         139.9376  142.8178  166.5307 C.ar    1  UNL1       -0.0045
     21 C         139.4441  144.2180  166.3159 C.ar    1  UNL1       -0.0029
     22 C         138.6091  144.5425  165.1128 C.ar    1  UNL1       -0.0003
     23 C         138.2675  143.4669  164.1246 C.ar    1  UNL1        0.0001
     24 C         138.7610  142.0669  164.3395 C.ar    1  UNL1        0.0026
     25 C         139.5961  141.7423  165.5425 C.ar    1  UNL1       -0.0028
     26 C         138.4195  140.9912  163.3513 C.ar    1  UNL1        0.0343
     27 C         137.9198  141.3587  161.9855 C.ar    1  UNL1        0.0030
     28 C         137.5783  140.2831  160.9974 C.ar    1  UNL1        0.0002
     29 C         137.7364  138.8401  161.3750 C.ar    1  UNL1        0.0031
     30 C         138.2360  138.4726  162.7407 C.ar    1  UNL1        0.0372
     31 C         138.5776  139.5482  163.7289 C.ar    1  UNL1        0.1467
     32 O         139.0772  139.1807  165.0947 O.3     1  UNL1       -0.4045
     33 C         138.3730  138.1228  165.8914 C.3     1  UNL1        0.5753
     34 F         137.6687  137.0648  166.6881 F       1  UNL1       -0.1328
     35 F         137.4480  139.1614  166.4531 F       1  UNL1       -0.1328
     36 F         139.2980  137.0841  165.3297 F       1  UNL1       -0.1328
@<TRIPOS>UNITY_ATOM_ATTR
16 1
charge -1
@<TRIPOS>BOND
     1    16    17   ar
     2    17    18   ar
     3    17    15    1
     4    15     1    1
     5     1    19    1
     6    19    20    1
     7    20    21   ar
     8    21    22   ar
     9    22    23   ar
    10    23    24   ar
    11    24    26    1
    12    26    27   ar
    13    27    28   ar
    14    28    29   ar
    15    29    30   ar
    16    30    31   ar
    17    31    32    1
    18    32    33    1
    19    33    34    1
    20    33    35    1
    21    33    36    1
    22    24    25   ar
    23     1     2    1
    24     2     3    2
    25     2     4    2
    26     2     5    1
    27     5     6   ar
    28     6     7   ar
    29     7     8   ar
    30     8    11    1
    31    11    12    1
    32    12    13    1
    33    12    14    1
    34     8     9   ar
    35     9    10   ar
    36    25    20   ar
    37    10     5   ar
    38    31    26   ar
@<TRIPOS>MOLECULE
*****
 36 38 0 0 0
SMALL
GASTEIGER

@<TRIPOS>ATOM
      1 N         138.9163  143.7217  163.5279 N.3     1  UNL1       -0.1454
      2 S         139.2955  142.9219  164.7389 S.O2    1  UNL1        0.0639
      3 O         137.9211  142.3222  164.7732 O.2     1  UNL1       -0.1528
      4 O         140.6700  143.5217  164.7046 O.2     1  UNL1       -0.1528
      5 C         139.6747  142.1222  165.9499 C.ar    1  UNL1        0.1224
      6 C         140.4604  142.7624  167.0557 C.ar    1  UNL1        0.0230
      7 C         140.8396  141.9626  168.2667 C.ar    1  UNL1        0.0385
      8 C         140.4332  140.5226  168.3719 C.ar    1  UNL1        0.1444
      9 C         139.6475  139.8823  167.2661 C.ar    1  UNL1        0.0385
     10 C         139.2683  140.6821  166.0551 C.ar    1  UNL1        0.0230
     11 O         140.8124  139.7228  169.5829 O.3     1  UNL1       -0.4236
     12 C         142.2505  139.3777  169.8337 C.3     1  UNL1        0.5087
     13 F         143.3034  140.4426  169.7470 F       1  UNL1       -0.1550
     14 F         142.6357  137.9678  170.1710 F       1  UNL1       -0.1550
     15 C         139.4145  145.1280  163.3716 C.3     1  UNL1        0.1375
     16 O         141.2627  145.0742  161.5465 O.co2   1  UNL1       -0.5477
     17 C         139.9475  145.5921  162.0486 C.2     1  UNL1        0.0683
     18 O         139.1654  146.5741  161.2277 O.co2   1  UNL1       -0.5477
     19 C         138.0389  143.1153  162.4732 C.3     1  UNL1        0.1225
     20 C         138.6457  142.2967  161.3724 C.ar    1  UNL1       -0.0045
     21 C         138.0583  142.3420  159.9929 C.ar    1  UNL1       -0.0029
     22 C         138.6651  141.5234  158.8921 C.ar    1  UNL1       -0.0003
     23 C         139.8592  140.6595  159.1709 C.ar    1  UNL1        0.0001
     24 C         140.4465  140.6142  160.5503 C.ar    1  UNL1        0.0026
     25 C         139.8398  141.4328  161.6511 C.ar    1  UNL1       -0.0028
     26 C         141.6407  139.7502  160.8291 C.ar    1  UNL1        0.0343
     27 C         143.0216  140.3302  160.7473 C.ar    1  UNL1        0.0030
     28 C         144.2156  139.4663  161.0260 C.ar    1  UNL1        0.0002
     29 C         144.0288  138.0223  161.3866 C.ar    1  UNL1        0.0031
     30 C         142.6480  137.4423  161.4685 C.ar    1  UNL1        0.0372
     31 C         141.4539  138.3062  161.1897 C.ar    1  UNL1        0.1467
     32 O         140.0730  137.7262  161.2715 O.3     1  UNL1       -0.4045
     33 C         139.2880  137.8353  162.5451 C.3     1  UNL1        0.5753
     34 F         138.5030  137.9444  163.8186 F       1  UNL1       -0.1328
     35 F         138.2080  138.5781  161.8157 F       1  UNL1       -0.1328
     36 F         140.3679  137.0925  163.2744 F       1  UNL1       -0.1328
@<TRIPOS>UNITY_ATOM_ATTR
16 1
charge -1
@<TRIPOS>BOND
     1    16    17   ar
     2    17    18   ar
     3    17    15    1
     4    15     1    1
     5     1    19    1
     6    19    20    1
     7    20    21   ar
     8    21    22   ar
     9    22    23   ar
    10    23    24   ar
    11    24    26    1
    12    26    27   ar
    13    27    28   ar
    14    28    29   ar
    15    29    30   ar
    16    30    31   ar
    17    31    32    1
    18    32    33    1
    19    33    34    1
    20    33    35    1
    21    33    36    1
    22    24    25   ar
    23     1     2    1
    24     2     3    2
    25     2     4    2
    26     2     5    1
    27     5     6   ar
    28     6     7   ar
    29     7     8   ar
    30     8    11    1
    31    11    12    1
    32    12    13    1
    33    12    14    1
    34     8     9   ar
    35     9    10   ar
    36    25    20   ar
    37    10     5   ar
    38    31    26   ar
@<TRIPOS>MOLECULE
*****
 36 38 0 0 0
SMALL
GASTEIGER

@<TRIPOS>ATOM
      1 N         142.6520  138.8240  159.9096 N.3     1  UNL1       -0.1454
      2 S         142.8030  138.7728  161.4011 S.O2    1  UNL1        0.0639
      3 O         141.6180  137.8573  161.4896 O.2     1  UNL1       -0.1528
      4 O         143.9879  139.6882  161.3126 O.2     1  UNL1       -0.1528
      5 C         142.9539  138.7215  162.8926 C.ar    1  UNL1        0.1224
      6 C         141.8771  138.1041  163.7347 C.ar    1  UNL1        0.0230
      7 C         142.0280  138.0529  165.2262 C.ar    1  UNL1        0.0385
      8 C         143.2558  138.6191  165.8756 C.ar    1  UNL1        0.1444
      9 C         144.3328  139.2365  165.0336 C.ar    1  UNL1        0.0385
     10 C         144.1818  139.2878  163.5420 C.ar    1  UNL1        0.0230
     11 O         143.4068  138.5678  167.3671 O.3     1  UNL1       -0.4236
     12 C         142.5802  139.4689  168.2360 C.3     1  UNL1        0.5087
     13 F         141.1113  139.6223  167.9742 F       1  UNL1       -0.1550
     14 F         143.2226  140.2164  169.3667 F       1  UNL1       -0.1550
     15 C         142.6894  137.5567  159.1080 C.3     1  UNL1        0.1375
     16 O         143.5406  137.5910  156.6535 O.co2   1  UNL1       -0.5477
     17 C         142.4065  137.5921  157.6354 C.2     1  UNL1        0.0683
     18 O         140.9896  137.6285  157.1446 O.co2   1  UNL1       -0.5477
     19 C         142.4636  140.1425  159.2197 C.3     1  UNL1        0.1225
     20 C         141.1563  140.8690  159.3343 C.ar    1  UNL1       -0.0045
     21 C         140.2168  140.9113  158.1657 C.ar    1  UNL1       -0.0029
     22 C         138.9095  141.6378  158.2804 C.ar    1  UNL1       -0.0003
     23 C         138.5416  142.3219  159.5637 C.ar    1  UNL1        0.0001
     24 C         139.4811  142.2795  160.7322 C.ar    1  UNL1        0.0026
     25 C         140.7884  141.5531  160.6176 C.ar    1  UNL1       -0.0028
     26 C         139.1132  142.9636  162.0155 C.ar    1  UNL1        0.0343
     27 C         139.8525  144.1952  162.4476 C.ar    1  UNL1        0.0030
     28 C         139.4846  144.8792  163.7308 C.ar    1  UNL1        0.0002
     29 C         138.3775  144.3317  164.5820 C.ar    1  UNL1        0.0031
     30 C         137.6383  143.1001  164.1499 C.ar    1  UNL1        0.0372
     31 C         138.0061  142.4161  162.8667 C.ar    1  UNL1        0.1467
     32 O         137.2668  141.1845  162.4345 O.3     1  UNL1       -0.4045
     33 C         137.8856  139.8318  162.6280 C.3     1  UNL1        0.5753
     34 F         138.5043  138.4791  162.8214 F       1  UNL1       -0.1328
     35 F         138.0360  140.1103  164.0942 F       1  UNL1       -0.1328
     36 F         137.7351  139.5533  161.1617 F       1  UNL1       -0.1328
@<TRIPOS>UNITY_ATOM_ATTR
16 1
charge -1
@<TRIPOS>BOND
     1    16    17   ar
     2    17    18   ar
     3    17    15    1
     4    15     1    1
     5     1    19    1
     6    19    20    1
     7    20    21   ar
     8    21    22   ar
     9    22    23   ar
    10    23    24   ar
    11    24    26    1
    12    26    27   ar
    13    27    28   ar
    14    28    29   ar
    15    29    30   ar
    16    30    31   ar
    17    31    32    1
    18    32    33    1
    19    33    34    1
    20    33    35    1
    21    33    36    1
    22    24    25   ar
    23     1     2    1
    24     2     3    2
    25     2     4    2
    26     2     5    1
    27     5     6   ar
    28     6     7   ar
    29     7     8   ar
    30     8    11    1
    31    11    12    1
    32    12    13    1
    33    12    14    1
    34     8     9   ar
    35     9    10   ar
    36    25    20   ar
    37    10     5   ar
    38    31    26   ar
@<TRIPOS>MOLECULE
*****
 36 38 0 0 0
SMALL
GASTEIGER

@<TRIPOS>ATOM
      1 N         142.5920  138.9955  159.9659 N.3     1  UNL1       -0.1454
      2 S         141.7359  138.6341  161.1434 S.O2    1  UNL1        0.0639
      3 O         142.9460  138.1202  161.8656 O.2     1  UNL1       -0.1528
      4 O         140.5258  139.1479  160.4212 O.2     1  UNL1       -0.1528
      5 C         140.8798  138.2726  162.3209 C.ar    1  UNL1        0.1224
      6 C         141.4428  137.4309  163.4274 C.ar    1  UNL1        0.0230
      7 C         140.5867  137.0695  164.6048 C.ar    1  UNL1        0.0385
      8 C         139.1675  137.5498  164.6758 C.ar    1  UNL1        0.1444
      9 C         138.6043  138.3916  163.5692 C.ar    1  UNL1        0.0385
     10 C         139.4605  138.7530  162.3918 C.ar    1  UNL1        0.0230
     11 O         138.3114  137.1884  165.8532 O.3     1  UNL1       -0.4236
     12 C         137.7513  138.2670  166.7326 C.3     1  UNL1        0.5087
     13 F         136.7350  137.9267  167.7820 F       1  UNL1       -0.1550
     14 F         138.2077  139.6857  166.5624 F       1  UNL1       -0.1550
     15 C         142.9328  137.9562  158.9393 C.3     1  UNL1        0.1375
     16 O         143.7071  137.9056  156.4598 O.co2   1  UNL1       -0.5477
     17 C         142.6604  138.2183  157.4878 C.2     1  UNL1        0.0683
     18 O         141.3413  138.7930  157.0641 O.co2   1  UNL1       -0.5477
     19 C         143.1074  140.3960  159.8151 C.3     1  UNL1        0.1225
     20 C         143.3296  141.2483  161.0293 C.ar    1  UNL1       -0.0045
     21 C         144.7191  141.4580  161.5543 C.ar    1  UNL1       -0.0029
     22 C         144.9414  142.3102  162.7685 C.ar    1  UNL1       -0.0003
     23 C         143.7742  142.9528  163.4577 C.ar    1  UNL1        0.0001
     24 C         142.3848  142.7430  162.9327 C.ar    1  UNL1        0.0026
     25 C         142.1626  141.8908  161.7185 C.ar    1  UNL1       -0.0028
     26 C         141.2177  143.3856  163.6219 C.ar    1  UNL1        0.0343
     27 C         140.2901  144.2778  162.8516 C.ar    1  UNL1        0.0030
     28 C         139.1230  144.9203  163.5408 C.ar    1  UNL1        0.0002
     29 C         138.8835  144.6705  165.0003 C.ar    1  UNL1        0.0031
     30 C         139.8111  143.7783  165.7707 C.ar    1  UNL1        0.0372
     31 C         140.9782  143.1358  165.0815 C.ar    1  UNL1        0.1467
     32 O         141.9058  142.2435  165.8518 O.3     1  UNL1       -0.4045
     33 C         141.4449  140.8870  166.2961 C.3     1  UNL1        0.5753
     34 F         140.9839  139.5305  166.7403 F       1  UNL1       -0.1328
     35 F         141.0292  141.4612  167.6180 F       1  UNL1       -0.1328
     36 F         141.8605  140.3128  164.9741 F       1  UNL1       -0.1328
@<TRIPOS>UNITY_ATOM_ATTR
16 1
charge -1
@<TRIPOS>BOND
     1    16    17   ar
     2    17    18   ar
     3    17    15    1
     4    15     1    1
     5     1    19    1
     6    19    20    1
     7    20    21   ar
     8    21    22   ar
     9    22    23   ar
    10    23    24   ar
    11    24    26    1
    12    26    27   ar
    13    27    28   ar
    14    28    29   ar
    15    29    30   ar
    16    30    31   ar
    17    31    32    1
    18    32    33    1
    19    33    34    1
    20    33    35    1
    21    33    36    1
    22    24    25   ar
    23     1     2    1
    24     2     3    2
    25     2     4    2
    26     2     5    1
    27     5     6   ar
    28     6     7   ar
    29     7     8   ar
    30     8    11    1
    31    11    12    1
    32    12    13    1
    33    12    14    1
    34     8     9   ar
    35     9    10   ar
    36    25    20   ar
    37    10     5   ar
    38    31    26   ar
@<TRIPOS>MOLECULE
*****
 36 38 0 0 0
SMALL
GASTEIGER

@<TRIPOS>ATOM
      1 N         143.2377  143.3850  161.9010 N.3     1  UNL1       -0.1454
      2 S         142.1392  143.1479  160.9075 S.O2    1  UNL1        0.0639
      3 O         141.9228  141.7760  161.4741 O.2     1  UNL1       -0.1528
      4 O         142.3555  144.5198  160.3409 O.2     1  UNL1       -0.1528
      5 C         141.0407  142.9108  159.9140 C.ar    1  UNL1        0.1224
      6 C         141.3595  142.8186  158.4512 C.ar    1  UNL1        0.0230
      7 C         140.2610  142.5815  157.4577 C.ar    1  UNL1        0.0385
      8 C         138.8437  142.4365  157.9270 C.ar    1  UNL1        0.1444
      9 C         138.5249  142.5286  159.3898 C.ar    1  UNL1        0.0385
     10 C         139.6234  142.7658  160.3834 C.ar    1  UNL1        0.0230
     11 O         137.7452  142.1994  156.9334 O.3     1  UNL1       -0.4236
     12 C         137.2798  143.3178  156.0488 C.3     1  UNL1        0.5087
     13 F         136.0014  143.1805  155.2761 F       1  UNL1       -0.1550
     14 F         138.0927  144.5734  155.9368 F       1  UNL1       -0.1550
     15 C         144.5715  142.7239  161.7164 C.3     1  UNL1        0.1375
     16 O         144.7488  140.2287  162.4180 O.co2   1  UNL1       -0.5477
     17 C         145.0306  141.6771  162.6877 C.2     1  UNL1        0.0683
     18 O         145.7714  142.0787  163.9285 O.co2   1  UNL1       -0.5477
     19 C         143.0024  144.2832  163.0791 C.3     1  UNL1        0.1225
     20 C         141.7164  144.1931  163.8459 C.ar    1  UNL1       -0.0045
     21 C         140.5121  144.9584  163.3830 C.ar    1  UNL1       -0.0029
     22 C         139.2260  144.8684  164.1498 C.ar    1  UNL1       -0.0003
     23 C         139.1443  144.0131  165.3794 C.ar    1  UNL1        0.0001
     24 C         140.3485  143.2479  165.8422 C.ar    1  UNL1        0.0026
     25 C         141.6346  143.3379  165.0754 C.ar    1  UNL1       -0.0028
     26 C         140.2667  142.3926  167.0718 C.ar    1  UNL1        0.0343
     27 C         140.4732  143.0041  168.4258 C.ar    1  UNL1        0.0030
     28 C         140.3914  142.1488  169.6553 C.ar    1  UNL1        0.0002
     29 C         140.1032  140.6820  169.5308 C.ar    1  UNL1        0.0031
     30 C         139.8968  140.0705  168.1768 C.ar    1  UNL1        0.0372
     31 C         139.9785  140.9258  166.9473 C.ar    1  UNL1        0.1467
     32 O         139.7721  140.3143  165.5932 O.3     1  UNL1       -0.4045
     33 C         139.0731  138.9933  165.4655 C.3     1  UNL1        0.5753
     34 F         138.3741  137.6723  165.3378 F       1  UNL1       -0.1328
     35 F         137.7496  139.6763  165.6446 F       1  UNL1       -0.1328
     36 F         140.3965  138.3103  165.2864 F       1  UNL1       -0.1328
@<TRIPOS>UNITY_ATOM_ATTR
16 1
charge -1
@<TRIPOS>BOND
     1    16    17   ar
     2    17    18   ar
     3    17    15    1
     4    15     1    1
     5     1    19    1
     6    19    20    1
     7    20    21   ar
     8    21    22   ar
     9    22    23   ar
    10    23    24   ar
    11    24    26    1
    12    26    27   ar
    13    27    28   ar
    14    28    29   ar
    15    29    30   ar
    16    30    31   ar
    17    31    32    1
    18    32    33    1
    19    33    34    1
    20    33    35    1
    21    33    36    1
    22    24    25   ar
    23     1     2    1
    24     2     3    2
    25     2     4    2
    26     2     5    1
    27     5     6   ar
    28     6     7   ar
    29     7     8   ar
    30     8    11    1
    31    11    12    1
    32    12    13    1
    33    12    14    1
    34     8     9   ar
    35     9    10   ar
    36    25    20   ar
    37    10     5   ar
    38    31    26   ar
