@<TRIPOS>MOLECULE
*****
 36 39 0 0 0
SMALL
GASTEIGER

@<TRIPOS>ATOM
      1 S         142.0199  139.7707  163.6611 S.O2    1  UNL1        0.0736
      2 O         142.3414  138.6269  162.7455 O.2     1  UNL1       -0.1499
      3 O         141.6984  140.9146  164.5767 O.2     1  UNL1       -0.1499
      4 C         142.2123  140.7329  162.5265 C.ar    1  UNL1        0.1251
      5 C         141.0329  141.1826  161.7162 C.ar    1  UNL1        0.0199
      6 C         141.2253  142.1447  160.5816 C.ar    1  UNL1       -0.0029
      7 C         142.5972  142.6572  160.2574 C.ar    1  UNL1       -0.0220
      8 C         143.7767  142.2075  161.0678 C.ar    1  UNL1       -0.0029
      9 C         143.5843  141.2454  162.2023 C.ar    1  UNL1        0.0199
     10 C         142.7897  143.6194  159.1229 C.3     1  UNL1        0.0289
     11 C         141.5976  144.2050  158.4257 C.3     1  UNL1        0.0367
     12 C         140.9604  145.4564  158.9529 C.3     1  UNL1        0.1426
     13 O         139.8021  145.3660  159.9017 O.3     1  UNL1       -0.3523
     14 C         139.8721  146.0447  161.2376 C.3     1  UNL1        0.1580
     15 C         140.2986  145.2716  162.4501 C.3     1  UNL1        0.0874
     16 C         141.7005  145.1485  162.9692 C.3     1  UNL1        0.0199
     17 C         141.6665  144.2867  164.1964 C.3     1  UNL1        0.0188
     18 C         140.2435  143.8771  164.4358 C.3     1  UNL1        0.0722
     19 N         139.3981  144.4858  163.3566 N.3     1  UNL1       -0.2705
     20 C         137.9130  144.3352  163.2096 C.3     1  UNL1        0.0897
     21 N         141.8275  138.8086  164.7956 N.pl3   1  UNL1       -0.2152
     22 H         142.3845  137.9989  164.8542 H       1  UNL1        0.1737
     23 C         139.3590  138.6889  165.5970 C.ar    1  UNL1       -0.0074
     24 C         138.3180  138.9603  166.6422 C.ar    1  UNL1       -0.0014
     25 C         138.7043  139.6230  167.9313 C.ar    1  UNL1        0.0207
     26 C         140.1317  140.0141  168.1751 C.ar    1  UNL1        0.1036
     27 N         140.8059  140.6766  169.3399 N.ar    1  UNL1       -0.1692
     28 N         142.2636  140.8146  169.0144 N.ar    1  UNL1       -0.2473
     29 C         143.3108  141.4230  169.8995 C.3     1  UNL1        0.1538
     30 C         142.4904  140.2374  167.6486 C.ar    1  UNL1        0.0979
     31 C         141.1728  139.7426  167.1299 C.ar    1  UNL1        0.0524
     32 C         140.7864  139.0800  165.8409 C.ar    1  UNL1        0.0637
     33 C         138.9727  138.0263  164.3079 C.3     1  UNL1        0.0276
     34 C         137.9734  140.2453  163.3983 C.3     1  UNL1        0.0003
     35 C         138.4782  138.8533  163.1583 C.3     1  UNL1        0.0044
     36 C         138.4885  138.2885  161.7688 C.3     1  UNL1        0.0003
@<TRIPOS>BOND
     1    34    35    1
     2    35    36    1
     3    35    33    1
     4    33    23    1
     5    23    24   ar
     6    24    25   ar
     7    25    26   ar
     8    26    27   ar
     9    27    28   ar
    10    28    29    1
    11    28    30   ar
    12    30    31   ar
    13    31    32   ar
    14    32    21    1
    15    21     1    1
    16     1     2    2
    17     1     3    2
    18     1     4    1
    19     4     5   ar
    20     5     6   ar
    21     6     7   ar
    22     7    10    1
    23    10    11    1
    24    11    12    1
    25    12    13    1
    26    13    14    1
    27    15    14    1
    28    15    16    1
    29    16    17    1
    30    17    18    1
    31    18    19    1
    32    19    20    1
    33     7     8   ar
    34     8     9   ar
    35    32    23   ar
    36     9     4   ar
    37    31    26   ar
    38    19    15    1
    39    21    22    1
@<TRIPOS>MOLECULE
*****
 36 39 0 0 0
SMALL
GASTEIGER

@<TRIPOS>ATOM
      1 S         139.7696  142.3395  165.7768 S.O2    1  UNL1        0.0736
      2 O         140.9717  142.9944  166.3901 O.2     1  UNL1       -0.1499
      3 O         138.5674  141.6846  165.1635 O.2     1  UNL1       -0.1499
      4 C         139.8659  143.2647  164.6000 C.ar    1  UNL1        0.1251
      5 C         141.0743  144.1368  164.4285 C.ar    1  UNL1        0.0199
      6 C         141.1706  145.0620  163.2518 C.ar    1  UNL1       -0.0029
      7 C         140.0586  145.1151  162.2465 C.ar    1  UNL1       -0.0220
      8 C         138.8502  144.2430  162.4180 C.ar    1  UNL1       -0.0029
      9 C         138.7538  143.3178  163.5948 C.ar    1  UNL1        0.0199
     10 C         140.1549  146.0402  161.0698 C.3     1  UNL1        0.0289
     11 C         140.1842  145.4824  159.6776 C.3     1  UNL1        0.0367
     12 C         141.2997  144.5715  159.2580 C.3     1  UNL1        0.1426
     13 O         142.4801  144.3661  160.1605 O.3     1  UNL1       -0.3523
     14 C         143.2562  143.0840  160.1002 C.3     1  UNL1        0.1580
     15 C         143.9616  142.5760  161.3226 C.3     1  UNL1        0.0874
     16 C         144.4038  143.4034  162.4930 C.3     1  UNL1        0.0199
     17 C         145.0641  142.4903  163.4832 C.3     1  UNL1        0.0188
     18 C         145.0299  141.0986  162.9247 C.3     1  UNL1        0.0722
     19 N         144.3485  141.1516  161.5894 N.3     1  UNL1       -0.2705
     20 C         144.0980  139.9849  160.6805 C.3     1  UNL1        0.0897
     21 N         139.6732  141.4144  166.9535 N.pl3   1  UNL1       -0.2152
     22 H         138.8485  141.3850  167.4904 H       1  UNL1        0.1737
     23 C         141.3725  140.5369  168.7121 C.ar    1  UNL1       -0.0074
     24 C         142.5326  139.6565  169.0709 C.ar    1  UNL1       -0.0014
     25 C         143.1538  138.7730  168.0299 C.ar    1  UNL1        0.0207
     26 C         142.6148  138.7700  166.6301 C.ar    1  UNL1        0.1036
     27 N         143.0184  138.0111  165.4008 N.ar    1  UNL1       -0.1692
     28 N         142.1077  138.4226  164.2823 N.ar    1  UNL1       -0.2473
     29 C         142.1550  137.9108  162.8731 C.3     1  UNL1        0.1538
     30 C         141.1412  139.4357  164.8202 C.ar    1  UNL1        0.0979
     31 C         141.4546  139.6504  166.2713 C.ar    1  UNL1        0.0524
     32 C         140.8334  140.5339  167.3123 C.ar    1  UNL1        0.0637
     33 C         140.7513  141.4204  169.7531 C.3     1  UNL1        0.0276
     34 C         140.3483  143.9857  169.8358 C.3     1  UNL1        0.0003
     35 C         141.2723  142.8111  169.9643 C.3     1  UNL1        0.0044
     36 C         142.7173  143.0273  170.3039 C.3     1  UNL1        0.0003
@<TRIPOS>BOND
     1    34    35    1
     2    35    36    1
     3    35    33    1
     4    33    23    1
     5    23    24   ar
     6    24    25   ar
     7    25    26   ar
     8    26    27   ar
     9    27    28   ar
    10    28    29    1
    11    28    30   ar
    12    30    31   ar
    13    31    32   ar
    14    32    21    1
    15    21     1    1
    16     1     2    2
    17     1     3    2
    18     1     4    1
    19     4     5   ar
    20     5     6   ar
    21     6     7   ar
    22     7    10    1
    23    10    11    1
    24    11    12    1
    25    12    13    1
    26    13    14    1
    27    15    14    1
    28    15    16    1
    29    16    17    1
    30    17    18    1
    31    18    19    1
    32    19    20    1
    33     7     8   ar
    34     8     9   ar
    35    32    23   ar
    36     9     4   ar
    37    31    26   ar
    38    19    15    1
    39    21    22    1
@<TRIPOS>MOLECULE
*****
 36 39 0 0 0
SMALL
GASTEIGER

@<TRIPOS>ATOM
      1 S         142.0288  138.0552  160.9190 S.O2    1  UNL1        0.0736
      2 O         143.1577  137.4591  161.7066 O.2     1  UNL1       -0.1499
      3 O         140.8999  138.6512  160.1312 O.2     1  UNL1       -0.1499
      4 C         141.1270  137.9210  162.1100 C.ar    1  UNL1        0.1251
      5 C         141.7072  137.6201  163.4601 C.ar    1  UNL1        0.0199
      6 C         140.8054  137.4859  164.6511 C.ar    1  UNL1       -0.0029
      7 C         139.3232  137.6526  164.4922 C.ar    1  UNL1       -0.0220
      8 C         138.7429  137.9535  163.1420 C.ar    1  UNL1       -0.0029
      9 C         139.6447  138.0877  161.9509 C.ar    1  UNL1        0.0199
     10 C         138.4213  137.5185  165.6831 C.3     1  UNL1        0.0289
     11 C         138.0560  138.7307  166.4876 C.3     1  UNL1        0.0367
     12 C         139.1295  139.5432  167.1492 C.3     1  UNL1        0.1426
     13 O         139.4130  140.9382  166.6766 O.3     1  UNL1       -0.3523
     14 C         139.6993  141.1953  165.2268 C.3     1  UNL1        0.1580
     15 C         139.2165  142.4595  164.5797 C.3     1  UNL1        0.0874
     16 C         137.8051  142.7551  164.1665 C.3     1  UNL1        0.0199
     17 C         137.7766  144.1284  163.5636 C.3     1  UNL1        0.0188
     18 C         139.1703  144.6814  163.6043 C.3     1  UNL1        0.0722
     19 N         140.0602  143.6501  164.2323 N.3     1  UNL1       -0.2705
     20 C         141.5348  143.7854  164.4709 C.3     1  UNL1        0.0897
     21 N         142.9307  138.1893  159.7279 N.pl3   1  UNL1       -0.2152
     22 H         143.2862  137.3843  159.2865 H       1  UNL1        0.1737
     23 C         143.0466  139.8927  157.7696 C.ar    1  UNL1       -0.0074
     24 C         143.4068  141.2533  157.2510 C.ar    1  UNL1       -0.0014
     25 C         144.0111  142.2713  158.1722 C.ar    1  UNL1        0.0207
     26 C         144.2553  141.9286  159.6120 C.ar    1  UNL1        0.1036
     27 N         144.8325  142.7198  160.7481 N.ar    1  UNL1       -0.1692
     28 N         144.8291  141.8482  161.9688 N.ar    1  UNL1       -0.2473
     29 C         145.3190  142.2380  163.3319 C.3     1  UNL1        0.1538
     30 C         144.2498  140.5182  161.5871 C.ar    1  UNL1        0.0979
     31 C         143.8952  140.5679  160.1305 C.ar    1  UNL1        0.0524
     32 C         143.2908  139.5500  159.2093 C.ar    1  UNL1        0.0637
     33 C         142.4423  138.8747  156.8484 C.3     1  UNL1        0.0276
     34 C         143.1437  136.3923  156.5400 C.3     1  UNL1        0.0003
     35 C         143.3136  137.8424  156.1964 C.3     1  UNL1        0.0044
     36 C         144.3548  138.2603  155.2007 C.3     1  UNL1        0.0003
@<TRIPOS>BOND
     1    34    35    1
     2    35    36    1
     3    35    33    1
     4    33    23    1
     5    23    24   ar
     6    24    25   ar
     7    25    26   ar
     8    26    27   ar
     9    27    28   ar
    10    28    29    1
    11    28    30   ar
    12    30    31   ar
    13    31    32   ar
    14    32    21    1
    15    21     1    1
    16     1     2    2
    17     1     3    2
    18     1     4    1
    19     4     5   ar
    20     5     6   ar
    21     6     7   ar
    22     7    10    1
    23    10    11    1
    24    11    12    1
    25    12    13    1
    26    13    14    1
    27    15    14    1
    28    15    16    1
    29    16    17    1
    30    17    18    1
    31    18    19    1
    32    19    20    1
    33     7     8   ar
    34     8     9   ar
    35    32    23   ar
    36     9     4   ar
    37    31    26   ar
    38    19    15    1
    39    21    22    1
@<TRIPOS>MOLECULE
*****
 36 39 0 0 0
SMALL
GASTEIGER

@<TRIPOS>ATOM
      1 S         142.4095  138.2903  161.0321 S.O2    1  UNL1        0.0736
      2 O         143.5118  137.7216  161.8756 O.2     1  UNL1       -0.1499
      3 O         141.3072  138.8591  160.1886 O.2     1  UNL1       -0.1499
      4 C         141.4268  138.0169  162.1320 C.ar    1  UNL1        0.1251
      5 C         139.9570  137.9864  161.8341 C.ar    1  UNL1        0.0199
      6 C         138.9744  137.7130  162.9340 C.ar    1  UNL1       -0.0029
      7 C         139.4615  137.4701  164.3317 C.ar    1  UNL1       -0.0220
      8 C         140.9314  137.5006  164.6295 C.ar    1  UNL1       -0.0029
      9 C         141.9141  137.7740  163.5297 C.ar    1  UNL1        0.0199
     10 C         138.4790  137.1967  165.4315 C.3     1  UNL1        0.0289
     11 C         138.1062  138.2868  166.3923 C.3     1  UNL1        0.0367
     12 C         138.2074  139.7233  165.9726 C.3     1  UNL1        0.1426
     13 O         139.5249  140.4363  166.0500 O.3     1  UNL1       -0.3523
     14 C         140.0337  141.2027  164.8653 C.3     1  UNL1        0.1580
     15 C         139.3951  142.5053  164.4841 C.3     1  UNL1        0.0874
     16 C         139.8175  143.8654  164.9551 C.3     1  UNL1        0.0199
     17 C         138.9054  144.8773  164.3272 C.3     1  UNL1        0.0188
     18 C         137.9194  144.1426  163.4682 C.3     1  UNL1        0.0722
     19 N         138.2220  142.6766  163.5652 N.3     1  UNL1       -0.2705
     20 C         137.4816  141.5753  162.8660 C.3     1  UNL1        0.0897
     21 N         143.3921  138.5637  159.9323 N.pl3   1  UNL1       -0.2152
     22 H         143.8987  137.8220  159.5292 H       1  UNL1        0.1737
     23 C         143.5143  140.2751  157.9813 C.ar    1  UNL1       -0.0074
     24 C         143.7251  141.6785  157.4957 C.ar    1  UNL1       -0.0014
     25 C         144.0248  142.7742  158.4755 C.ar    1  UNL1        0.0207
     26 C         144.1135  142.4663  159.9409 C.ar    1  UNL1        0.1036
     27 N         144.3919  143.3325  161.1334 N.ar    1  UNL1       -0.1692
     28 N         144.3531  142.4644  162.3560 N.ar    1  UNL1       -0.2473
     29 C         144.5773  142.9191  163.7677 C.3     1  UNL1        0.1538
     30 C         144.0507  141.0616  161.9191 C.ar    1  UNL1        0.0979
     31 C         143.9026  141.0628  160.4265 C.ar    1  UNL1        0.0524
     32 C         143.6030  139.9672  159.4467 C.ar    1  UNL1        0.0637
     33 C         143.2146  139.1795  157.0016 C.3     1  UNL1        0.0276
     34 C         140.9179  139.8433  155.9847 C.3     1  UNL1        0.0003
     35 C         141.7921  138.8366  156.6719 C.3     1  UNL1        0.0044
     36 C         141.2436  137.4870  157.0294 C.3     1  UNL1        0.0003
@<TRIPOS>BOND
     1    34    35    1
     2    35    36    1
     3    35    33    1
     4    33    23    1
     5    23    24   ar
     6    24    25   ar
     7    25    26   ar
     8    26    27   ar
     9    27    28   ar
    10    28    29    1
    11    28    30   ar
    12    30    31   ar
    13    31    32   ar
    14    32    21    1
    15    21     1    1
    16     1     2    2
    17     1     3    2
    18     1     4    1
    19     4     5   ar
    20     5     6   ar
    21     6     7   ar
    22     7    10    1
    23    10    11    1
    24    11    12    1
    25    12    13    1
    26    13    14    1
    27    15    14    1
    28    15    16    1
    29    16    17    1
    30    17    18    1
    31    18    19    1
    32    19    20    1
    33     7     8   ar
    34     8     9   ar
    35    32    23   ar
    36     9     4   ar
    37    31    26   ar
    38    19    15    1
    39    21    22    1
@<TRIPOS>MOLECULE
*****
 36 39 0 0 0
SMALL
GASTEIGER

@<TRIPOS>ATOM
      1 S         143.3444  140.3896  165.4254 S.O2    1  UNL1        0.0736
      2 O         143.8733  139.0476  165.0141 O.2     1  UNL1       -0.1499
      3 O         142.8155  141.7317  165.8367 O.2     1  UNL1       -0.1499
      4 C         143.6571  140.9307  164.0617 C.ar    1  UNL1        0.1251
      5 C         143.7908  139.9958  162.8964 C.ar    1  UNL1        0.0199
      6 C         144.1034  140.5369  161.5328 C.ar    1  UNL1       -0.0029
      7 C         144.2823  142.0130  161.3345 C.ar    1  UNL1       -0.0220
      8 C         144.1486  142.9479  162.4999 C.ar    1  UNL1       -0.0029
      9 C         143.8359  142.4068  163.8635 C.ar    1  UNL1        0.0199
     10 C         144.5949  142.5541  159.9709 C.3     1  UNL1        0.0289
     11 C         143.4951  143.1054  159.1126 C.3     1  UNL1        0.0367
     12 C         142.0820  142.6459  159.3174 C.3     1  UNL1        0.1426
     13 O         141.2182  143.3126  160.3466 O.3     1  UNL1       -0.3523
     14 C         140.6900  142.5234  161.5076 C.3     1  UNL1        0.1580
     15 C         140.0210  143.2275  162.6507 C.3     1  UNL1        0.0874
     16 C         140.6208  144.3194  163.4861 C.3     1  UNL1        0.0199
     17 C         139.6053  144.7301  164.5109 C.3     1  UNL1        0.0188
     18 C         138.3778  143.8919  164.3088 C.3     1  UNL1        0.0722
     19 N         138.6347  142.9633  163.1592 N.3     1  UNL1       -0.2705
     20 C         137.6741  141.9486  162.6137 C.3     1  UNL1        0.0897
     21 N         143.0318  139.8485  166.7890 N.pl3   1  UNL1       -0.2152
     22 H         143.7567  139.5079  167.3615 H       1  UNL1        0.1737
     23 C         141.3040  140.2271  168.6920 C.ar    1  UNL1       -0.0074
     24 C         139.8871  140.2049  169.1834 C.ar    1  UNL1       -0.0014
     25 C         138.7806  139.7820  168.2630 C.ar    1  UNL1        0.0207
     26 C         139.0913  139.3813  166.8513 C.ar    1  UNL1        0.1036
     27 N         138.2164  138.9222  165.7227 N.ar    1  UNL1       -0.1692
     28 N         139.0928  138.6606  164.5338 N.ar    1  UNL1       -0.2473
     29 C         138.6334  138.1851  163.1874 C.3     1  UNL1        0.1538
     30 C         140.5093  138.9581  164.9276 C.ar    1  UNL1        0.0979
     31 C         140.5083  139.4035  166.3600 C.ar    1  UNL1        0.0524
     32 C         141.6147  139.8264  167.2803 C.ar    1  UNL1        0.0637
     33 C         142.4105  140.6500  169.6123 C.3     1  UNL1        0.0276
     34 C         141.6745  143.1330  169.8187 C.3     1  UNL1        0.0003
     35 C         142.7617  142.1022  169.7451 C.3     1  UNL1        0.0044
     36 C         144.2001  142.5238  169.8044 C.3     1  UNL1        0.0003
@<TRIPOS>BOND
     1    34    35    1
     2    35    36    1
     3    35    33    1
     4    33    23    1
     5    23    24   ar
     6    24    25   ar
     7    25    26   ar
     8    26    27   ar
     9    27    28   ar
    10    28    29    1
    11    28    30   ar
    12    30    31   ar
    13    31    32   ar
    14    32    21    1
    15    21     1    1
    16     1     2    2
    17     1     3    2
    18     1     4    1
    19     4     5   ar
    20     5     6   ar
    21     6     7   ar
    22     7    10    1
    23    10    11    1
    24    11    12    1
    25    12    13    1
    26    13    14    1
    27    15    14    1
    28    15    16    1
    29    16    17    1
    30    17    18    1
    31    18    19    1
    32    19    20    1
    33     7     8   ar
    34     8     9   ar
    35    32    23   ar
    36     9     4   ar
    37    31    26   ar
    38    19    15    1
    39    21    22    1
@<TRIPOS>MOLECULE
*****
 36 39 0 0 0
SMALL
GASTEIGER

@<TRIPOS>ATOM
      1 S         143.3594  143.1440  163.6107 S.O2    1  UNL1        0.0736
      2 O         144.6417  143.2747  162.8435 O.2     1  UNL1       -0.1499
      3 O         142.0771  143.0133  164.3780 O.2     1  UNL1       -0.1499
      4 C         142.6000  143.6773  162.4322 C.ar    1  UNL1        0.1251
      5 C         141.4610  144.6303  162.6427 C.ar    1  UNL1        0.0199
      6 C         140.7016  145.1636  161.4642 C.ar    1  UNL1       -0.0029
      7 C         141.0812  144.7438  160.0751 C.ar    1  UNL1       -0.0220
      8 C         142.2202  143.7906  159.8646 C.ar    1  UNL1       -0.0029
      9 C         142.9796  143.2574  161.0431 C.ar    1  UNL1        0.0199
     10 C         140.3218  145.2770  158.8966 C.3     1  UNL1        0.0289
     11 C         139.9834  144.3707  157.7501 C.3     1  UNL1        0.0367
     12 C         139.0733  143.1978  157.9645 C.3     1  UNL1        0.1426
     13 O         138.3584  143.0325  159.2728 O.3     1  UNL1       -0.3523
     14 C         138.5307  141.7722  160.0677 C.3     1  UNL1        0.1580
     15 C         138.1802  141.7514  161.5260 C.3     1  UNL1        0.0874
     16 C         137.9458  142.9524  162.3936 C.3     1  UNL1        0.0199
     17 C         137.6234  142.4693  163.7766 C.3     1  UNL1        0.0188
     18 C         137.6585  140.9698  163.7637 C.3     1  UNL1        0.0722
     19 N         138.0027  140.5261  162.3728 N.3     1  UNL1       -0.2705
     20 C         138.1443  139.1064  161.9099 C.3     1  UNL1        0.0897
     21 N         144.1188  142.6107  164.7892 N.pl3   1  UNL1       -0.2152
     22 H         144.9010  143.0999  165.1330 H       1  UNL1        0.1737
     23 C         143.8251  140.0305  164.7116 C.ar    1  UNL1       -0.0074
     24 C         143.3929  138.7520  165.3662 C.ar    1  UNL1       -0.0014
     25 C         142.8220  138.7752  166.7532 C.ar    1  UNL1        0.0207
     26 C         142.6834  140.0770  167.4855 C.ar    1  UNL1        0.1036
     27 N         142.1603  140.4094  168.8514 N.ar    1  UNL1       -0.1692
     28 N         142.2693  141.8934  169.0410 N.ar    1  UNL1       -0.2473
     29 C         141.8597  142.6584  170.2645 C.3     1  UNL1        0.1538
     30 C         142.8597  142.4781  167.7922 C.ar    1  UNL1        0.0979
     31 C         143.1157  141.3555  166.8308 C.ar    1  UNL1        0.0524
     32 C         143.6866  141.3322  165.4439 C.ar    1  UNL1        0.0637
     33 C         144.3960  140.0073  163.3246 C.3     1  UNL1        0.0276
     34 C         142.0275  139.8857  162.2639 C.3     1  UNL1        0.0003
     35 C         143.5112  139.6941  162.1546 C.3     1  UNL1        0.0044
     36 C         144.1099  139.1892  160.8753 C.3     1  UNL1        0.0003
@<TRIPOS>BOND
     1    34    35    1
     2    35    36    1
     3    35    33    1
     4    33    23    1
     5    23    24   ar
     6    24    25   ar
     7    25    26   ar
     8    26    27   ar
     9    27    28   ar
    10    28    29    1
    11    28    30   ar
    12    30    31   ar
    13    31    32   ar
    14    32    21    1
    15    21     1    1
    16     1     2    2
    17     1     3    2
    18     1     4    1
    19     4     5   ar
    20     5     6   ar
    21     6     7   ar
    22     7    10    1
    23    10    11    1
    24    11    12    1
    25    12    13    1
    26    13    14    1
    27    15    14    1
    28    15    16    1
    29    16    17    1
    30    17    18    1
    31    18    19    1
    32    19    20    1
    33     7     8   ar
    34     8     9   ar
    35    32    23   ar
    36     9     4   ar
    37    31    26   ar
    38    19    15    1
    39    21    22    1
@<TRIPOS>MOLECULE
*****
 36 39 0 0 0
SMALL
GASTEIGER

@<TRIPOS>ATOM
      1 S         143.4001  138.7954  159.9755 S.O2    1  UNL1        0.0736
      2 O         142.9547  137.3651  160.0519 O.2     1  UNL1       -0.1499
      3 O         143.8456  140.2258  159.8991 O.2     1  UNL1       -0.1499
      4 C         143.4060  138.8735  161.4735 C.ar    1  UNL1        0.1251
      5 C         142.4227  138.0686  162.2704 C.ar    1  UNL1        0.0199
      6 C         142.4286  138.1467  163.7683 C.ar    1  UNL1       -0.0029
      7 C         143.4179  139.0298  164.4694 C.ar    1  UNL1       -0.0220
      8 C         144.4012  139.8348  163.6724 C.ar    1  UNL1       -0.0029
      9 C         144.3953  139.7567  162.1745 C.ar    1  UNL1        0.0199
     10 C         143.4238  139.1080  165.9673 C.3     1  UNL1        0.0289
     11 C         142.1292  139.2096  166.7181 C.3     1  UNL1        0.0367
     12 C         141.2699  140.4301  166.5696 C.3     1  UNL1        0.1426
     13 O         140.4340  140.6136  165.3377 O.3     1  UNL1       -0.3523
     14 C         139.1092  139.9202  165.2201 C.3     1  UNL1        0.1580
     15 C         138.6665  139.3678  163.8976 C.3     1  UNL1        0.0874
     16 C         138.9198  137.9780  163.3934 C.3     1  UNL1        0.0199
     17 C         138.3027  137.8594  162.0313 C.3     1  UNL1        0.0188
     18 C         137.6682  139.1760  161.6938 C.3     1  UNL1        0.0722
     19 N         137.8930  140.1082  162.8472 N.3     1  UNL1       -0.2705
     20 C         137.4263  141.5311  162.9349 C.3     1  UNL1        0.0897
     21 N         143.3943  138.7173  158.4776 N.pl3   1  UNL1       -0.2152
     22 H         144.2124  138.9243  157.9707 H       1  UNL1        0.1737
     23 C         142.1471  137.1354  156.8368 C.ar    1  UNL1       -0.0074
     24 C         140.8947  136.7419  156.1112 C.ar    1  UNL1       -0.0014
     25 C         139.6368  137.5369  156.3008 C.ar    1  UNL1        0.0207
     26 C         139.6315  138.7253  157.2160 C.ar    1  UNL1        0.1036
     27 N         138.5508  139.6927  157.5984 N.ar    1  UNL1       -0.1692
     28 N         139.1354  140.6841  158.5604 N.ar    1  UNL1       -0.2473
     29 C         138.4061  141.8292  159.1983 C.3     1  UNL1        0.1538
     30 C         140.5774  140.3294  158.7725 C.ar    1  UNL1        0.0979
     31 C         140.8840  139.1187  157.9416 C.ar    1  UNL1        0.0524
     32 C         142.1418  138.3238  157.7520 C.ar    1  UNL1        0.0637
     33 C         143.4050  136.3405  156.6472 C.3     1  UNL1        0.0276
     34 C         143.5030  134.0173  157.8060 C.3     1  UNL1        0.0003
     35 C         143.3413  134.8441  156.5650 C.3     1  UNL1        0.0044
     36 C         143.1158  134.1745  155.2417 C.3     1  UNL1        0.0003
@<TRIPOS>BOND
     1    34    35    1
     2    35    36    1
     3    35    33    1
     4    33    23    1
     5    23    24   ar
     6    24    25   ar
     7    25    26   ar
     8    26    27   ar
     9    27    28   ar
    10    28    29    1
    11    28    30   ar
    12    30    31   ar
    13    31    32   ar
    14    32    21    1
    15    21     1    1
    16     1     2    2
    17     1     3    2
    18     1     4    1
    19     4     5   ar
    20     5     6   ar
    21     6     7   ar
    22     7    10    1
    23    10    11    1
    24    11    12    1
    25    12    13    1
    26    13    14    1
    27    15    14    1
    28    15    16    1
    29    16    17    1
    30    17    18    1
    31    18    19    1
    32    19    20    1
    33     7     8   ar
    34     8     9   ar
    35    32    23   ar
    36     9     4   ar
    37    31    26   ar
    38    19    15    1
    39    21    22    1
@<TRIPOS>MOLECULE
*****
 36 39 0 0 0
SMALL
GASTEIGER

@<TRIPOS>ATOM
      1 S         139.7102  142.0411  164.6543 S.O2    1  UNL1        0.0736
      2 O         140.9795  142.5973  165.2283 O.2     1  UNL1       -0.1499
      3 O         138.4408  141.4848  164.0803 O.2     1  UNL1       -0.1499
      4 C         139.8228  142.9831  163.4925 C.ar    1  UNL1        0.1251
      5 C         139.3864  142.5443  162.1261 C.ar    1  UNL1        0.0199
      6 C         139.4990  143.4863  160.9642 C.ar    1  UNL1       -0.0029
      7 C         140.0481  144.8671  161.1687 C.ar    1  UNL1       -0.0220
      8 C         140.4845  145.3059  162.5351 C.ar    1  UNL1       -0.0029
      9 C         140.3719  144.3639  163.6970 C.ar    1  UNL1        0.0199
     10 C         140.1607  145.8091  160.0069 C.3     1  UNL1        0.0289
     11 C         140.4334  145.2749  158.6319 C.3     1  UNL1        0.0367
     12 C         141.8458  145.0384  158.1857 C.3     1  UNL1        0.1426
     13 O         142.7884  144.2639  159.0584 O.3     1  UNL1       -0.3523
     14 C         142.6226  142.7809  159.2105 C.3     1  UNL1        0.1580
     15 C         143.0674  142.1020  160.4720 C.3     1  UNL1        0.0874
     16 C         143.1242  142.7247  161.8354 C.3     1  UNL1        0.0199
     17 C         143.6253  141.6888  162.7977 C.3     1  UNL1        0.0188
     18 C         143.8781  140.4259  162.0289 C.3     1  UNL1        0.0722
     19 N         143.5333  140.6812  160.5915 N.3     1  UNL1       -0.2705
     20 C         143.6363  139.6899  159.4706 C.3     1  UNL1        0.0897
     21 N         139.5976  141.0991  165.8162 N.pl3   1  UNL1       -0.2152
     22 H         138.7424  141.0086  166.2955 H       1  UNL1        0.1737
     23 C         141.3617  139.2540  165.3329 C.ar    1  UNL1       -0.0074
     24 C         142.5520  138.4499  165.7645 C.ar    1  UNL1       -0.0014
     25 C         143.1687  138.6866  167.1113 C.ar    1  UNL1        0.0207
     26 C         142.5949  139.7275  168.0263 C.ar    1  UNL1        0.1036
     27 N         142.9864  140.1806  169.4016 N.ar    1  UNL1       -0.1692
     28 N         142.0379  141.2647  169.8199 N.ar    1  UNL1       -0.2473
     29 C         142.0627  142.0024  171.1258 C.3     1  UNL1        0.1538
     30 C         141.0603  141.4817  168.7032 C.ar    1  UNL1        0.0979
     31 C         141.4046  140.5317  167.5946 C.ar    1  UNL1        0.0524
     32 C         140.7879  140.2949  166.2479 C.ar    1  UNL1        0.0637
     33 C         140.7449  139.0173  163.9861 C.3     1  UNL1        0.0276
     34 C         138.9668  137.4656  165.0724 C.3     1  UNL1        0.0003
     35 C         139.5333  138.1423  163.8595 C.3     1  UNL1        0.0044
     36 C         138.8880  137.9438  162.5200 C.3     1  UNL1        0.0003
@<TRIPOS>BOND
     1    34    35    1
     2    35    36    1
     3    35    33    1
     4    33    23    1
     5    23    24   ar
     6    24    25   ar
     7    25    26   ar
     8    26    27   ar
     9    27    28   ar
    10    28    29    1
    11    28    30   ar
    12    30    31   ar
    13    31    32   ar
    14    32    21    1
    15    21     1    1
    16     1     2    2
    17     1     3    2
    18     1     4    1
    19     4     5   ar
    20     5     6   ar
    21     6     7   ar
    22     7    10    1
    23    10    11    1
    24    11    12    1
    25    12    13    1
    26    13    14    1
    27    15    14    1
    28    15    16    1
    29    16    17    1
    30    17    18    1
    31    18    19    1
    32    19    20    1
    33     7     8   ar
    34     8     9   ar
    35    32    23   ar
    36     9     4   ar
    37    31    26   ar
    38    19    15    1
    39    21    22    1
@<TRIPOS>MOLECULE
*****
 36 39 0 0 0
SMALL
GASTEIGER

@<TRIPOS>ATOM
      1 S         143.5494  138.8549  160.9068 S.O2    1  UNL1        0.0736
      2 O         142.6476  137.6593  160.8214 O.2     1  UNL1       -0.1499
      3 O         144.4512  140.0506  160.9921 O.2     1  UNL1       -0.1499
      4 C         143.4500  138.8231  162.4031 C.ar    1  UNL1        0.1251
      5 C         144.4681  139.5418  163.2379 C.ar    1  UNL1        0.0199
      6 C         144.3688  139.5099  164.7343 C.ar    1  UNL1       -0.0029
      7 C         143.2513  138.7593  165.3959 C.ar    1  UNL1       -0.0220
      8 C         142.2331  138.0405  164.5611 C.ar    1  UNL1       -0.0029
      9 C         142.3325  138.0724  163.0647 C.ar    1  UNL1        0.0199
     10 C         143.1519  138.7274  166.8922 C.3     1  UNL1        0.0289
     11 C         142.1847  139.6303  167.5990 C.3     1  UNL1        0.0367
     12 C         142.5642  141.0508  167.8955 C.3     1  UNL1        0.1426
     13 O         141.9146  142.1736  167.1424 O.3     1  UNL1       -0.3523
     14 C         141.8240  142.1195  165.6461 C.3     1  UNL1        0.1580
     15 C         142.1543  143.3342  164.8303 C.3     1  UNL1        0.0874
     16 C         143.5118  143.7054  164.3115 C.3     1  UNL1        0.0199
     17 C         143.3816  144.9916  163.5507 C.3     1  UNL1        0.0188
     18 C         141.9435  145.4153  163.5994 C.3     1  UNL1        0.0722
     19 N         141.1850  144.3909  164.3902 N.3     1  UNL1       -0.2705
     20 C         139.7152  144.4185  164.6886 C.3     1  UNL1        0.0897
     21 N         143.6487  138.8868  159.4104 N.pl3   1  UNL1       -0.2152
     22 H         144.5320  138.9055  158.9760 H       1  UNL1        0.1737
     23 C         141.4576  140.0534  158.6434 C.ar    1  UNL1       -0.0074
     24 C         140.2113  140.0567  157.8089 C.ar    1  UNL1       -0.0014
     25 C         139.9094  138.8968  156.9069 C.ar    1  UNL1        0.0207
     26 C         140.8541  137.7336  156.8394 C.ar    1  UNL1        0.1036
     27 N         140.8218  136.4590  156.0492 N.ar    1  UNL1       -0.1692
     28 N         142.0484  135.6680  156.3953 N.ar    1  UNL1       -0.2473
     29 C         142.4195  134.3267  155.8356 C.3     1  UNL1        0.1538
     30 C         142.8386  136.4536  157.3995 C.ar    1  UNL1        0.0979
     31 C         142.1005  137.7303  157.6739 C.ar    1  UNL1        0.0524
     32 C         142.4023  138.8901  158.5759 C.ar    1  UNL1        0.0637
     33 C         141.7595  141.2133  159.5454 C.3     1  UNL1        0.0276
     34 C         140.6836  142.9453  161.1555 C.3     1  UNL1        0.0003
     35 C         140.8471  141.5275  160.6937 C.3     1  UNL1        0.0044
     36 C         140.0980  140.4241  161.3804 C.3     1  UNL1        0.0003
@<TRIPOS>BOND
     1    34    35    1
     2    35    36    1
     3    35    33    1
     4    33    23    1
     5    23    24   ar
     6    24    25   ar
     7    25    26   ar
     8    26    27   ar
     9    27    28   ar
    10    28    29    1
    11    28    30   ar
    12    30    31   ar
    13    31    32   ar
    14    32    21    1
    15    21     1    1
    16     1     2    2
    17     1     3    2
    18     1     4    1
    19     4     5   ar
    20     5     6   ar
    21     6     7   ar
    22     7    10    1
    23    10    11    1
    24    11    12    1
    25    12    13    1
    26    13    14    1
    27    15    14    1
    28    15    16    1
    29    16    17    1
    30    17    18    1
    31    18    19    1
    32    19    20    1
    33     7     8   ar
    34     8     9   ar
    35    32    23   ar
    36     9     4   ar
    37    31    26   ar
    38    19    15    1
    39    21    22    1
