@<TRIPOS>MOLECULE
*****
 27 29 0 0 0
SMALL
GASTEIGER

@<TRIPOS>ATOM
      1 C         142.0803  140.0854  167.1337 C.ar    1  UNL1       -0.0208
      2 C         143.1857  140.8945  166.5228 C.ar    1  UNL1       -0.0042
      3 C         142.9248  141.7128  165.2931 C.ar    1  UNL1       -0.0003
      4 C         141.5585  141.7219  164.6742 C.ar    1  UNL1       -0.0000
      5 C         140.4530  140.9127  165.2850 C.ar    1  UNL1       -0.0003
      6 C         140.7139  140.0945  166.5148 C.ar    1  UNL1       -0.0042
      7 C         141.2976  142.5402  163.4444 C.ar    1  UNL1        0.0001
      8 C         141.3150  144.0381  163.5226 C.ar    1  UNL1        0.0013
      9 C         141.0541  144.8564  162.2928 C.ar    1  UNL1        0.0183
     10 C         140.7759  144.1768  160.9848 C.ar    1  UNL1        0.1058
     11 C         140.7586  142.6789  160.9066 C.ar    1  UNL1        0.0183
     12 C         141.0194  141.8607  162.1364 C.ar    1  UNL1        0.0013
     13 S         140.5151  144.9951  159.7550 S.O2    1  UNL1        0.0112
     14 O         139.6097  145.8932  160.5447 O.2     1  UNL1       -0.1685
     15 O         141.4204  144.0969  158.9654 O.2     1  UNL1       -0.1685
     16 C         140.2542  145.8133  158.5252 C.3     1  UNL1        0.1875
     17 C         141.2762  145.8657  157.4285 C.3     1  UNL1        0.1629
     18 O         142.6455  146.4124  157.7049 O.3     1  UNL1       -0.3801
     19 H         142.5806  147.3579  157.9116 H       1  UNL1        0.2105
     20 C         142.3411  139.2670  168.3635 C.3     1  UNL1        0.0437
     21 C         141.9121  139.7757  169.7078 C.3     1  UNL1        0.0768
     22 C         143.8538  142.3950  169.8415 C.3     1  UNL1        0.0173
     23 C         142.3561  142.4027  169.9245 C.3     1  UNL1        0.0576
     24 C         141.4881  143.6156  170.0837 C.3     1  UNL1        0.0174
     25 C         140.0590  143.1612  170.1205 C.3     1  UNL1        0.0187
     26 C         140.0439  141.6674  169.9842 C.3     1  UNL1        0.0721
     27 N         141.4636  141.1987  169.8631 N.3     1  UNL1       -0.2737
@<TRIPOS>BOND
     1    23    22    1
     2    23    24    1
     3    24    25    1
     4    25    26    1
     5    26    27    1
     6    27    21    1
     7    21    20    1
     8    20     1    1
     9     1     2   ar
    10     2     3   ar
    11     3     4   ar
    12     4     7    1
    13     7     8   ar
    14     8     9   ar
    15     9    10   ar
    16    10    13    1
    17    13    14    2
    18    13    15    2
    19    13    16    1
    20    16    17    1
    21    17    18    1
    22    10    11   ar
    23    11    12   ar
    24     4     5   ar
    25     5     6   ar
    26    27    23    1
    27     6     1   ar
    28    12     7   ar
    29    18    19    1
@<TRIPOS>MOLECULE
*****
 27 29 0 0 0
SMALL
GASTEIGER

@<TRIPOS>ATOM
      1 C         139.4775  139.8787  167.2785 C.ar    1  UNL1       -0.0208
      2 C         140.7040  140.3730  166.5703 C.ar    1  UNL1       -0.0042
      3 C         140.8553  140.1576  165.0936 C.ar    1  UNL1       -0.0003
      4 C         139.7802  139.4481  164.3251 C.ar    1  UNL1       -0.0000
      5 C         138.5537  138.9538  165.0333 C.ar    1  UNL1       -0.0003
      6 C         138.4024  139.1691  166.5100 C.ar    1  UNL1       -0.0042
      7 C         139.9315  139.2327  162.8483 C.ar    1  UNL1        0.0001
      8 C         138.9881  138.3196  162.1229 C.ar    1  UNL1        0.0013
      9 C         139.1395  138.1043  160.6462 C.ar    1  UNL1        0.0183
     10 C         140.2343  138.8022  159.8948 C.ar    1  UNL1        0.1058
     11 C         141.1777  139.7153  160.6203 C.ar    1  UNL1        0.0183
     12 C         141.0263  139.9306  162.0970 C.ar    1  UNL1        0.0013
     13 S         140.3857  138.5869  158.4181 S.O2    1  UNL1        0.0112
     14 O         141.7716  138.0567  158.6375 O.2     1  UNL1       -0.1685
     15 O         138.9998  139.1171  158.1988 O.2     1  UNL1       -0.1685
     16 C         140.5371  138.3716  156.9414 C.3     1  UNL1        0.1875
     17 C         139.3383  138.0323  156.1062 C.3     1  UNL1        0.1629
     18 O         138.7633  136.6474  156.1471 O.3     1  UNL1       -0.3801
     19 H         139.4032  136.0205  155.7749 H       1  UNL1        0.2105
     20 C         139.3262  140.0940  168.7553 C.3     1  UNL1        0.0437
     21 C         140.5085  139.9258  169.6628 C.3     1  UNL1        0.0768
     22 C         139.8753  143.0061  170.5345 C.3     1  UNL1        0.0173
     23 C         141.2246  142.4454  170.1956 C.3     1  UNL1        0.0576
     24 C         142.5198  143.2021  170.1978 C.3     1  UNL1        0.0174
     25 C         143.6113  142.2539  169.7985 C.3     1  UNL1        0.0187
     26 C         142.9907  140.9111  169.5495 C.3     1  UNL1        0.0721
     27 N         141.5157  141.0296  169.7949 N.3     1  UNL1       -0.2737
@<TRIPOS>BOND
     1    23    22    1
     2    23    24    1
     3    24    25    1
     4    25    26    1
     5    26    27    1
     6    27    21    1
     7    21    20    1
     8    20     1    1
     9     1     2   ar
    10     2     3   ar
    11     3     4   ar
    12     4     7    1
    13     7     8   ar
    14     8     9   ar
    15     9    10   ar
    16    10    13    1
    17    13    14    2
    18    13    15    2
    19    13    16    1
    20    16    17    1
    21    17    18    1
    22    10    11   ar
    23    11    12   ar
    24     4     5   ar
    25     5     6   ar
    26    27    23    1
    27     6     1   ar
    28    12     7   ar
    29    18    19    1
@<TRIPOS>MOLECULE
*****
 27 29 0 0 0
SMALL
GASTEIGER

@<TRIPOS>ATOM
      1 C         142.2299  140.2813  167.1487 C.ar    1  UNL1       -0.0208
      2 C         143.1676  141.3637  166.7026 C.ar    1  UNL1       -0.0042
      3 C         142.8743  142.1429  165.4549 C.ar    1  UNL1       -0.0003
      4 C         141.6432  141.8398  164.6534 C.ar    1  UNL1       -0.0000
      5 C         140.7054  140.7575  165.0995 C.ar    1  UNL1       -0.0003
      6 C         140.9987  139.9783  166.3472 C.ar    1  UNL1       -0.0042
      7 C         141.3499  142.6191  163.4057 C.ar    1  UNL1        0.0001
      8 C         141.6253  142.0138  162.0612 C.ar    1  UNL1        0.0013
      9 C         141.3320  142.7931  160.8135 C.ar    1  UNL1        0.0183
     10 C         140.7633  144.1777  160.9103 C.ar    1  UNL1        0.1058
     11 C         140.4878  144.7830  162.2549 C.ar    1  UNL1        0.0183
     12 C         140.7811  144.0037  163.5025 C.ar    1  UNL1        0.0013
     13 S         140.4700  144.9571  159.6627 S.O2    1  UNL1        0.0112
     14 O         139.7265  145.9763  160.4741 O.2     1  UNL1       -0.1685
     15 O         141.2134  143.9378  158.8513 O.2     1  UNL1       -0.1685
     16 C         140.1766  145.7364  158.4151 C.3     1  UNL1        0.1875
     17 C         141.2443  145.9211  157.3778 C.3     1  UNL1        0.1629
     18 O         142.6176  146.3655  157.7859 O.3     1  UNL1       -0.3801
     19 H         142.5742  147.2687  158.1369 H       1  UNL1        0.2105
     20 C         142.5232  139.5020  168.3964 C.3     1  UNL1        0.0437
     21 C         142.4559  140.1759  169.7348 C.3     1  UNL1        0.0768
     22 C         139.2133  140.4765  169.9454 C.3     1  UNL1        0.0173
     23 C         140.2073  141.5991  169.9871 C.3     1  UNL1        0.0576
     24 C         139.8854  143.0568  170.1329 C.3     1  UNL1        0.0174
     25 C         141.1770  143.8197  170.1263 C.3     1  UNL1        0.0187
     26 C         142.2971  142.8333  169.9763 C.3     1  UNL1        0.0721
     27 N         141.6978  141.4609  169.8903 N.3     1  UNL1       -0.2737
@<TRIPOS>BOND
     1    23    22    1
     2    23    24    1
     3    24    25    1
     4    25    26    1
     5    26    27    1
     6    27    21    1
     7    21    20    1
     8    20     1    1
     9     1     2   ar
    10     2     3   ar
    11     3     4   ar
    12     4     7    1
    13     7     8   ar
    14     8     9   ar
    15     9    10   ar
    16    10    13    1
    17    13    14    2
    18    13    15    2
    19    13    16    1
    20    16    17    1
    21    17    18    1
    22    10    11   ar
    23    11    12   ar
    24     4     5   ar
    25     5     6   ar
    26    27    23    1
    27     6     1   ar
    28    12     7   ar
    29    18    19    1
@<TRIPOS>MOLECULE
*****
 27 29 0 0 0
SMALL
GASTEIGER

@<TRIPOS>ATOM
      1 C         143.8399  140.8549  160.1732 C.ar    1  UNL1       -0.0208
      2 C         144.0318  139.5386  160.8663 C.ar    1  UNL1       -0.0042
      3 C         143.8017  139.4288  162.3444 C.ar    1  UNL1       -0.0003
      4 C         143.3798  140.6354  163.1294 C.ar    1  UNL1       -0.0000
      5 C         143.1880  141.9517  162.4363 C.ar    1  UNL1       -0.0003
      6 C         143.4180  142.0614  160.9581 C.ar    1  UNL1       -0.0042
      7 C         143.1497  140.5256  164.6077 C.ar    1  UNL1        0.0001
      8 C         142.8170  141.7498  165.4079 C.ar    1  UNL1        0.0013
      9 C         142.5869  141.6400  166.8861 C.ar    1  UNL1        0.0183
     10 C         142.6895  140.3059  167.5640 C.ar    1  UNL1        0.1058
     11 C         143.0222  139.0816  166.7637 C.ar    1  UNL1        0.0183
     12 C         143.2523  139.1914  165.2856 C.ar    1  UNL1        0.0013
     13 S         142.4594  140.1961  169.0422 S.O2    1  UNL1        0.0112
     14 O         141.8403  141.5623  169.0473 O.2     1  UNL1       -0.1685
     15 O         143.0786  138.8299  169.0370 O.2     1  UNL1       -0.1685
     16 C         142.2294  140.0862  170.5203 C.3     1  UNL1        0.1875
     17 C         141.4388  141.1406  171.2367 C.3     1  UNL1        0.1629
     18 O         142.1445  142.2873  171.8981 O.3     1  UNL1       -0.3801
     19 H         142.6789  141.9554  172.6365 H       1  UNL1        0.2105
     20 C         144.0700  140.9647  158.6949 C.3     1  UNL1        0.0437
     21 C         144.7415  142.1806  158.1287 C.3     1  UNL1        0.0768
     22 C         147.7555  143.4293  158.2051 C.3     1  UNL1        0.0173
     23 C         147.1700  142.6065  157.0960 C.3     1  UNL1        0.0576
     24 C         147.8670  142.2132  155.8274 C.3     1  UNL1        0.0174
     25 C         146.9124  141.3961  155.0081 C.3     1  UNL1        0.0187
     26 C         145.6253  141.2844  155.7705 C.3     1  UNL1        0.0721
     27 N         145.7846  142.0325  157.0609 N.3     1  UNL1       -0.2737
@<TRIPOS>BOND
     1    23    22    1
     2    23    24    1
     3    24    25    1
     4    25    26    1
     5    26    27    1
     6    27    21    1
     7    21    20    1
     8    20     1    1
     9     1     2   ar
    10     2     3   ar
    11     3     4   ar
    12     4     7    1
    13     7     8   ar
    14     8     9   ar
    15     9    10   ar
    16    10    13    1
    17    13    14    2
    18    13    15    2
    19    13    16    1
    20    16    17    1
    21    17    18    1
    22    10    11   ar
    23    11    12   ar
    24     4     5   ar
    25     5     6   ar
    26    27    23    1
    27     6     1   ar
    28    12     7   ar
    29    18    19    1
@<TRIPOS>MOLECULE
*****
 27 29 0 0 0
SMALL
GASTEIGER

@<TRIPOS>ATOM
      1 C         142.5504  138.0180  160.8194 C.ar    1  UNL1       -0.0208
      2 C         141.1362  138.1798  161.2925 C.ar    1  UNL1       -0.0042
      3 C         140.8602  138.5375  162.7228 C.ar    1  UNL1       -0.0003
      4 C         141.9983  138.7334  163.6800 C.ar    1  UNL1       -0.0000
      5 C         143.4125  138.5716  163.2070 C.ar    1  UNL1       -0.0003
      6 C         143.6885  138.2139  161.7767 C.ar    1  UNL1       -0.0042
      7 C         141.7222  139.0910  165.1104 C.ar    1  UNL1        0.0001
      8 C         140.3256  139.4250  165.5438 C.ar    1  UNL1        0.0013
      9 C         140.0495  139.7827  166.9742 C.ar    1  UNL1        0.0183
     10 C         141.1700  139.8064  167.9711 C.ar    1  UNL1        0.1058
     11 C         142.5667  139.4724  167.5376 C.ar    1  UNL1        0.0183
     12 C         142.8427  139.1148  166.1073 C.ar    1  UNL1        0.0013
     13 S         140.8940  140.1640  169.4014 S.O2    1  UNL1        0.0112
     14 O         142.3218  140.5917  169.5700 O.2     1  UNL1       -0.1685
     15 O         139.4662  139.7364  169.2328 O.2     1  UNL1       -0.1685
     16 C         140.6179  140.5217  170.8317 C.3     1  UNL1        0.1875
     17 C         140.8416  141.9256  171.3104 C.3     1  UNL1        0.1629
     18 O         142.1456  142.3011  171.9499 O.3     1  UNL1       -0.3801
     19 H         142.2424  141.8258  172.7899 H       1  UNL1        0.2105
     20 C         142.8265  137.6603  159.3891 C.3     1  UNL1        0.0437
     21 C         142.1842  138.4435  158.2827 C.3     1  UNL1        0.0768
     22 C         143.2298  136.2445  156.1100 C.3     1  UNL1        0.0173
     23 C         141.8194  136.7321  156.2620 C.3     1  UNL1        0.0576
     24 C         140.6421  136.2945  155.4420 C.3     1  UNL1        0.0174
     25 C         139.4337  137.0349  155.9339 C.3     1  UNL1        0.0187
     26 C         139.8644  137.9300  157.0580 C.3     1  UNL1        0.0721
     27 N         141.3388  137.7428  157.2607 N.3     1  UNL1       -0.2737
@<TRIPOS>BOND
     1    23    22    1
     2    23    24    1
     3    24    25    1
     4    25    26    1
     5    26    27    1
     6    27    21    1
     7    21    20    1
     8    20     1    1
     9     1     2   ar
    10     2     3   ar
    11     3     4   ar
    12     4     7    1
    13     7     8   ar
    14     8     9   ar
    15     9    10   ar
    16    10    13    1
    17    13    14    2
    18    13    15    2
    19    13    16    1
    20    16    17    1
    21    17    18    1
    22    10    11   ar
    23    11    12   ar
    24     4     5   ar
    25     5     6   ar
    26    27    23    1
    27     6     1   ar
    28    12     7   ar
    29    18    19    1
@<TRIPOS>MOLECULE
*****
 27 29 0 0 0
SMALL
GASTEIGER

@<TRIPOS>ATOM
      1 C         142.4155  142.2724  166.2642 C.ar    1  UNL1       -0.0208
      2 C         143.4716  142.1023  165.2127 C.ar    1  UNL1       -0.0042
      3 C         143.2532  142.6523  163.8344 C.ar    1  UNL1       -0.0003
      4 C         141.9786  143.3724  163.5076 C.ar    1  UNL1       -0.0000
      5 C         140.9224  143.5425  164.5590 C.ar    1  UNL1       -0.0003
      6 C         141.1409  142.9925  165.9373 C.ar    1  UNL1       -0.0042
      7 C         141.7602  143.9224  162.1292 C.ar    1  UNL1        0.0001
      8 C         142.6017  143.4374  160.9861 C.ar    1  UNL1        0.0013
      9 C         142.3833  143.9874  159.6077 C.ar    1  UNL1        0.0183
     10 C         141.3234  145.0224  159.3725 C.ar    1  UNL1        0.1058
     11 C         140.4819  145.5074  160.5157 C.ar    1  UNL1        0.0183
     12 C         140.7003  144.9574  161.8940 C.ar    1  UNL1        0.0013
     13 S         141.1049  145.5724  157.9942 S.O2    1  UNL1        0.0112
     14 O         139.6962  145.0577  158.0121 O.2     1  UNL1       -0.1685
     15 O         142.5137  146.0872  157.9764 O.2     1  UNL1       -0.1685
     16 C         140.8865  146.1224  156.6159 C.3     1  UNL1        0.1875
     17 C         139.5247  146.5991  156.2058 C.3     1  UNL1        0.1629
     18 O         139.0269  147.9360  156.6695 O.3     1  UNL1       -0.3801
     19 H         138.9106  147.9215  157.6324 H       1  UNL1        0.2105
     20 C         142.6339  141.7223  167.6425 C.3     1  UNL1        0.0437
     21 C         142.1295  140.3538  167.9925 C.3     1  UNL1        0.0768
     22 C         139.2113  140.4258  169.4513 C.3     1  UNL1        0.0173
     23 C         139.4983  139.8910  168.0797 C.3     1  UNL1        0.0576
     24 C         138.4943  139.2954  167.1377 C.3     1  UNL1        0.0174
     25 C         139.2152  138.8942  165.8849 C.3     1  UNL1        0.0187
     26 C         140.6648  139.2418  166.0527 C.3     1  UNL1        0.0721
     27 N         140.8396  139.8579  167.4091 N.3     1  UNL1       -0.2737
@<TRIPOS>BOND
     1    23    22    1
     2    23    24    1
     3    24    25    1
     4    25    26    1
     5    26    27    1
     6    27    21    1
     7    21    20    1
     8    20     1    1
     9     1     2   ar
    10     2     3   ar
    11     3     4   ar
    12     4     7    1
    13     7     8   ar
    14     8     9   ar
    15     9    10   ar
    16    10    13    1
    17    13    14    2
    18    13    15    2
    19    13    16    1
    20    16    17    1
    21    17    18    1
    22    10    11   ar
    23    11    12   ar
    24     4     5   ar
    25     5     6   ar
    26    27    23    1
    27     6     1   ar
    28    12     7   ar
    29    18    19    1
@<TRIPOS>MOLECULE
*****
 27 29 0 0 0
SMALL
GASTEIGER

@<TRIPOS>ATOM
      1 C         142.4445  142.3555  165.9268 C.ar    1  UNL1       -0.0208
      2 C         143.5466  142.2625  164.9136 C.ar    1  UNL1       -0.0042
      3 C         143.3311  142.7784  163.5217 C.ar    1  UNL1       -0.0003
      4 C         142.0135  143.3873  163.1431 C.ar    1  UNL1       -0.0000
      5 C         140.9115  143.4802  164.1564 C.ar    1  UNL1       -0.0003
      6 C         141.1270  142.9644  165.5482 C.ar    1  UNL1       -0.0042
      7 C         141.7981  143.9032  161.7511 C.ar    1  UNL1        0.0001
      8 C         140.8040  144.9986  161.5028 C.ar    1  UNL1        0.0013
      9 C         140.5885  145.5145  160.1108 C.ar    1  UNL1        0.0183
     10 C         141.3672  144.9349  158.9672 C.ar    1  UNL1        0.1058
     11 C         142.3613  143.8394  159.2157 C.ar    1  UNL1        0.0183
     12 C         142.5767  143.3235  160.6076 C.ar    1  UNL1        0.0013
     13 S         141.1518  145.4507  157.5753 S.O2    1  UNL1        0.0112
     14 O         142.4555  146.1890  157.6472 O.2     1  UNL1       -0.1685
     15 O         139.8481  144.7124  157.5035 O.2     1  UNL1       -0.1685
     16 C         140.9364  145.9666  156.1834 C.3     1  UNL1        0.1875
     17 C         139.9758  147.0930  155.9413 C.3     1  UNL1        0.1629
     18 O         139.1793  147.6573  157.0802 O.3     1  UNL1       -0.3801
     19 H         138.5616  146.9847  157.4074 H       1  UNL1        0.2105
     20 C         142.6600  141.8396  167.3188 C.3     1  UNL1        0.0437
     21 C         142.4099  140.3937  167.6299 C.3     1  UNL1        0.0768
     22 C         139.2649  139.9843  166.8612 C.3     1  UNL1        0.0173
     23 C         140.4278  139.2918  166.2148 C.3     1  UNL1        0.0576
     24 C         140.3494  138.2896  165.1015 C.3     1  UNL1        0.0174
     25 C         141.7465  137.8583  164.7667 C.3     1  UNL1        0.0187
     26 C         142.6885  138.5940  165.6732 C.3     1  UNL1        0.0721
     27 N         141.8734  139.4800  166.5681 N.3     1  UNL1       -0.2737
@<TRIPOS>BOND
     1    23    22    1
     2    23    24    1
     3    24    25    1
     4    25    26    1
     5    26    27    1
     6    27    21    1
     7    21    20    1
     8    20     1    1
     9     1     2   ar
    10     2     3   ar
    11     3     4   ar
    12     4     7    1
    13     7     8   ar
    14     8     9   ar
    15     9    10   ar
    16    10    13    1
    17    13    14    2
    18    13    15    2
    19    13    16    1
    20    16    17    1
    21    17    18    1
    22    10    11   ar
    23    11    12   ar
    24     4     5   ar
    25     5     6   ar
    26    27    23    1
    27     6     1   ar
    28    12     7   ar
    29    18    19    1
@<TRIPOS>MOLECULE
*****
 27 29 0 0 0
SMALL
GASTEIGER

@<TRIPOS>ATOM
      1 C         138.1435  140.2561  160.3546 C.ar    1  UNL1       -0.0208
      2 C         138.0768  138.9728  161.1283 C.ar    1  UNL1       -0.0042
      3 C         138.3510  138.9711  162.6030 C.ar    1  UNL1       -0.0003
      4 C         138.6919  140.2527  163.3040 C.ar    1  UNL1       -0.0000
      5 C         138.7586  141.5360  162.5303 C.ar    1  UNL1       -0.0003
      6 C         138.4844  141.5377  161.0556 C.ar    1  UNL1       -0.0042
      7 C         138.9661  140.2510  164.7788 C.ar    1  UNL1        0.0001
      8 C         138.2334  139.2987  165.6767 C.ar    1  UNL1        0.0013
      9 C         138.5076  139.2969  167.1515 C.ar    1  UNL1        0.0183
     10 C         139.5145  140.2475  167.7282 C.ar    1  UNL1        0.1058
     11 C         140.2472  141.1998  166.8302 C.ar    1  UNL1        0.0183
     12 C         139.9729  141.2015  165.3555 C.ar    1  UNL1        0.0013
     13 S         139.7887  140.2458  169.2029 S.O2    1  UNL1        0.0112
     14 O         138.4507  139.6147  169.4510 O.2     1  UNL1       -0.1685
     15 O         141.1266  140.8769  168.9549 O.2     1  UNL1       -0.1685
     16 C         140.0629  140.2441  170.6776 C.3     1  UNL1        0.1875
     17 C         141.1338  141.1297  171.2424 C.3     1  UNL1        0.1629
     18 O         142.3710  140.5248  171.8369 O.3     1  UNL1       -0.3801
     19 H         142.1357  140.0256  172.6346 H       1  UNL1        0.2105
     20 C         137.8693  140.2579  158.8798 C.3     1  UNL1        0.0437
     21 C         139.0093  140.2741  157.9051 C.3     1  UNL1        0.0768
     22 C         141.4469  142.2412  158.8202 C.3     1  UNL1        0.0173
     23 C         141.4970  140.7432  158.7632 C.3     1  UNL1        0.0576
     24 C         142.6762  139.8863  159.1169 C.3     1  UNL1        0.0174
     25 C         142.2846  138.4524  158.9148 C.3     1  UNL1        0.0187
     26 C         140.8632  138.4232  158.4363 C.3     1  UNL1        0.0721
     27 N         140.3765  139.8390  158.3426 N.3     1  UNL1       -0.2737
@<TRIPOS>BOND
     1    23    22    1
     2    23    24    1
     3    24    25    1
     4    25    26    1
     5    26    27    1
     6    27    21    1
     7    21    20    1
     8    20     1    1
     9     1     2   ar
    10     2     3   ar
    11     3     4   ar
    12     4     7    1
    13     7     8   ar
    14     8     9   ar
    15     9    10   ar
    16    10    13    1
    17    13    14    2
    18    13    15    2
    19    13    16    1
    20    16    17    1
    21    17    18    1
    22    10    11   ar
    23    11    12   ar
    24     4     5   ar
    25     5     6   ar
    26    27    23    1
    27     6     1   ar
    28    12     7   ar
    29    18    19    1
@<TRIPOS>MOLECULE
*****
 27 29 0 0 0
SMALL
GASTEIGER

@<TRIPOS>ATOM
      1 C         139.0589  138.9322  165.2274 C.ar    1  UNL1       -0.0208
      2 C         138.6576  139.9065  164.1599 C.ar    1  UNL1       -0.0042
      3 C         139.1589  139.7306  162.7571 C.ar    1  UNL1       -0.0003
      4 C         140.0614  138.5803  162.4219 C.ar    1  UNL1       -0.0000
      5 C         140.4628  137.6061  163.4895 C.ar    1  UNL1       -0.0003
      6 C         139.9615  137.7820  164.8922 C.ar    1  UNL1       -0.0042
      7 C         140.5627  138.4044  161.0191 C.ar    1  UNL1        0.0001
      8 C         142.0123  138.1085  160.7722 C.ar    1  UNL1        0.0013
      9 C         142.5136  137.9326  159.3694 C.ar    1  UNL1        0.0183
     10 C         141.5652  138.0526  158.2135 C.ar    1  UNL1        0.1058
     11 C         140.1155  138.3485  158.4604 C.ar    1  UNL1        0.0183
     12 C         139.6143  138.5244  159.8632 C.ar    1  UNL1        0.0013
     13 S         142.0663  137.8767  156.8107 S.O2    1  UNL1        0.0112
     14 O         140.7184  137.3686  156.3928 O.2     1  UNL1       -0.1685
     15 O         143.4143  138.3849  157.2286 O.2     1  UNL1       -0.1685
     16 C         142.5675  137.7008  155.4079 C.3     1  UNL1        0.1875
     17 C         143.4596  136.5433  155.0698 C.3     1  UNL1        0.1629
     18 O         144.9275  136.6148  155.3703 O.3     1  UNL1       -0.3801
     19 H         145.3370  137.3013  154.8208 H       1  UNL1        0.2105
     20 C         138.5577  139.1081  166.6302 C.3     1  UNL1        0.0437
     21 C         139.3596  139.9008  167.6194 C.3     1  UNL1        0.0768
     22 C         142.5601  139.2741  167.5040 C.3     1  UNL1        0.0173
     23 C         141.8966  140.5528  167.0862 C.3     1  UNL1        0.0576
     24 C         142.5875  141.7679  166.5421 C.3     1  UNL1        0.0174
     25 C         141.5434  142.8070  166.2588 C.3     1  UNL1        0.0187
     26 C         140.2071  142.2340  166.6279 C.3     1  UNL1        0.0721
     27 N         140.4255  140.8409  167.1392 N.3     1  UNL1       -0.2737
@<TRIPOS>BOND
     1    23    22    1
     2    23    24    1
     3    24    25    1
     4    25    26    1
     5    26    27    1
     6    27    21    1
     7    21    20    1
     8    20     1    1
     9     1     2   ar
    10     2     3   ar
    11     3     4   ar
    12     4     7    1
    13     7     8   ar
    14     8     9   ar
    15     9    10   ar
    16    10    13    1
    17    13    14    2
    18    13    15    2
    19    13    16    1
    20    16    17    1
    21    17    18    1
    22    10    11   ar
    23    11    12   ar
    24     4     5   ar
    25     5     6   ar
    26    27    23    1
    27     6     1   ar
    28    12     7   ar
    29    18    19    1
