@<TRIPOS>MOLECULE
*****
 58 64 0 0 0
SMALL
GASTEIGER

@<TRIPOS>ATOM
      1 C         141.6778  140.4123  160.0067 C.ar    1  UNL1        0.0172
      2 C         142.7669  139.3857  160.1064 C.ar    1  UNL1        0.0015
      3 C         142.8157  138.2471  159.1312 C.ar    1  UNL1        0.0000
      4 C         141.7755  138.1350  158.0563 C.ar    1  UNL1        0.0000
      5 C         140.6865  139.1616  157.9566 C.ar    1  UNL1        0.0000
      6 C         140.6376  140.3003  158.9318 C.ar    1  UNL1        0.0015
      7 C         140.9308  143.0165  162.7863 C.ar    1  UNL1        0.1353
      8 N         142.1766  143.5902  162.1788 N.ar    1  UNL1       -0.2279
      9 C         142.6080  142.6846  161.0636 C.ar    1  UNL1        0.1171
     10 C         141.6290  141.5511  160.9819 C.ar    1  UNL1        0.0769
     11 N         140.5924  141.7562  162.0465 N.ar    1  UNL1       -0.3394
     12 H         139.8247  141.1671  162.2279 H       1  UNL1        0.1671
     13 C         140.7838  141.8076  165.8139 C.2     1  UNL1        0.2447
     14 O         141.6380  141.0054  164.8775 O.2     1  UNL1       -0.2730
     15 N         140.0915  143.0448  165.3239 N.am    1  UNL1       -0.2730
     16 C         139.2100  143.9436  166.1395 C.3     1  UNL1        0.0939
     17 C         138.7328  145.0546  165.2520 C.3     1  UNL1        0.0237
     18 C         139.3194  144.8426  163.8878 C.3     1  UNL1        0.0293
     19 C         140.1590  143.6004  163.9323 C.3     1  UNL1        0.1319
     20 C         140.6221  141.3727  167.2403 C.3     1  UNL1        0.1578
     21 C         141.4569  142.0024  168.3157 C.ar    1  UNL1        0.0010
     22 C         140.8578  143.0380  169.2205 C.ar    1  UNL1       -0.0025
     23 C         141.6927  143.6677  170.2959 C.ar    1  UNL1       -0.0003
     24 C         143.1266  143.2618  170.4665 C.ar    1  UNL1       -0.0000
     25 C         143.7256  142.2263  169.5617 C.ar    1  UNL1       -0.0003
     26 C         142.8908  141.5966  168.4863 C.ar    1  UNL1       -0.0025
     27 N         139.6254  140.3080  167.5913 N.3     1  UNL1       -0.2631
     28 C         138.5152  140.3035  169.9402 C.3     1  UNL1        0.0188
     29 C         139.5544  139.7801  168.9936 C.3     1  UNL1        0.0728
     30 C         138.6998  139.7712  166.5401 C.3     1  UNL1        0.0728
     31 C         137.8721  138.5523  166.8212 C.3     1  UNL1        0.0188
     32 C         141.8244  136.9963  157.0811 C.ar    1  UNL1        0.0000
     33 C         142.9461  136.0025  157.1442 C.ar    1  UNL1        0.0000
     34 C         142.9950  134.8637  156.1690 C.ar    1  UNL1        0.0015
     35 C         141.9221  134.7189  155.1307 C.ar    1  UNL1        0.0172
     36 C         140.8004  135.7128  155.0677 C.ar    1  UNL1        0.0015
     37 C         140.7515  136.8514  156.0428 C.ar    1  UNL1        0.0000
     38 C         141.9710  133.5802  154.1555 C.ar    1  UNL1        0.0769
     39 C         142.1706  133.6966  152.6734 C.ar    1  UNL1        0.1171
     40 N         142.1517  132.3136  152.0931 N.ar    1  UNL1       -0.2279
     41 C         141.9405  131.3424  153.2166 C.ar    1  UNL1        0.1353
     42 N         141.8288  132.1252  154.4912 N.ar    1  UNL1       -0.3394
     43 H         141.6870  131.7499  155.3903 H       1  UNL1        0.1671
     44 C         141.8559  129.8503  153.0881 C.3     1  UNL1        0.1319
     45 C         140.9226  129.0943  152.1895 C.3     1  UNL1        0.0293
     46 C         141.1795  127.6290  152.3815 C.3     1  UNL1        0.0237
     47 C         142.2716  127.4794  153.3989 C.3     1  UNL1        0.0939
     48 N         142.6896  128.8522  153.8355 N.am    1  UNL1       -0.2730
     49 C         143.7544  129.1710  154.8428 C.2     1  UNL1        0.2439
     50 O         144.0642  130.5993  155.1801 O.2     1  UNL1       -0.2731
     51 C         144.5093  128.0613  155.5128 C.3     1  UNL1        0.1513
     52 C         145.7938  127.5632  154.9196 C.3     1  UNL1        0.0313
     53 N         143.9798  127.4499  156.7759 N.am    1  UNL1       -0.2640
     54 C         144.1779  128.1492  158.0881 C.2     1  UNL1        0.4021
     55 O         144.9056  129.4599  158.1370 O.2     1  UNL1       -0.2264
     56 H         143.5021  126.5897  156.7438 H       1  UNL1        0.1532
     57 O         143.6483  127.5378  159.3513 O.3     1  UNL1       -0.4306
     58 C         142.1681  127.4321  159.5702 C.3     1  UNL1        0.2573
@<TRIPOS>BOND
     1    28    29    1
     2    29    27    1
     3    27    30    1
     4    30    31    1
     5    20    27    1
     6    20    13    1
     7    13    14    2
     8    13    15   am
     9    15    16    1
    10    16    17    1
    11    17    18    1
    12    18    19    1
    13    19     7    1
    14     7     8   ar
    15     8     9   ar
    16     9    10   ar
    17    10     1    1
    18     1     2   ar
    19     2     3   ar
    20     3     4   ar
    21     4    32    1
    22    32    33   ar
    23    33    34   ar
    24    34    35   ar
    25    35    38    1
    26    38    39   ar
    27    39    40   ar
    28    40    41   ar
    29    44    41    1
    30    44    45    1
    31    45    46    1
    32    46    47    1
    33    47    48    1
    34    48    49   am
    35    49    50    2
    36    49    51    1
    37    51    52    1
    38    51    53    1
    39    53    54   am
    40    54    55    2
    41    54    57    1
    42    57    58    1
    43    41    42   ar
    44    35    36   ar
    45    36    37   ar
    46     4     5   ar
    47     5     6   ar
    48    10    11   ar
    49    20    21    1
    50    21    22   ar
    51    22    23   ar
    52    23    24   ar
    53    24    25   ar
    54    25    26   ar
    55    19    15    1
    56    11     7   ar
    57    26    21   ar
    58     6     1   ar
    59    37    32   ar
    60    42    38   ar
    61    48    44    1
    62    53    56    1
    63    42    43    1
    64    11    12    1
@<TRIPOS>MOLECULE
*****
 58 64 0 0 0
SMALL
GASTEIGER

@<TRIPOS>ATOM
      1 C         142.9003  140.1683  158.3004 C.ar    1  UNL1        0.0172
      2 C         142.6852  140.1797  156.8159 C.ar    1  UNL1        0.0015
      3 C         142.4957  138.8889  156.0757 C.ar    1  UNL1        0.0000
      4 C         142.5211  137.5868  156.8200 C.ar    1  UNL1        0.0000
      5 C         142.7362  137.5755  158.3044 C.ar    1  UNL1        0.0000
      6 C         142.9257  138.8662  159.0446 C.ar    1  UNL1        0.0015
      7 C         143.2247  143.0980  160.8258 C.ar    1  UNL1        0.1353
      8 N         143.5383  143.7928  159.5339 N.ar    1  UNL1       -0.2279
      9 C         143.4550  142.7800  158.4307 C.ar    1  UNL1        0.1171
     10 C         143.0898  141.4591  159.0406 C.ar    1  UNL1        0.0769
     11 N         142.9475  141.6557  160.5209 N.ar    1  UNL1       -0.3394
     12 H         142.7133  140.9602  161.1771 H       1  UNL1        0.1671
     13 C         140.8764  142.7317  163.0620 C.2     1  UNL1        0.2447
     14 O         140.6340  141.9705  161.7925 O.2     1  UNL1       -0.2730
     15 N         142.1144  143.5654  163.2119 N.am    1  UNL1       -0.2730
     16 C         142.4903  144.3772  164.4159 C.3     1  UNL1        0.0939
     17 C         143.8019  145.0473  164.1321 C.3     1  UNL1        0.0237
     18 C         144.2367  144.6496  162.7527 C.3     1  UNL1        0.0293
     19 C         143.1937  143.7338  162.1840 C.3     1  UNL1        0.1319
     20 C         139.8810  142.6592  164.1817 C.3     1  UNL1        0.1578
     21 C         140.1684  141.8143  165.3873 C.ar    1  UNL1        0.0010
     22 C         140.2072  140.3199  165.2640 C.ar    1  UNL1       -0.0025
     23 C         140.4947  139.4750  166.4696 C.ar    1  UNL1       -0.0003
     24 C         140.7434  140.1246  167.7985 C.ar    1  UNL1       -0.0000
     25 C         140.7046  141.6190  167.9219 C.ar    1  UNL1       -0.0003
     26 C         140.4171  142.4638  166.7164 C.ar    1  UNL1       -0.0025
     27 N         138.5980  143.4316  164.0957 N.3     1  UNL1       -0.2631
     28 C         138.1625  145.1642  165.9822 C.3     1  UNL1        0.0188
     29 C         138.5467  144.8553  164.5656 C.3     1  UNL1        0.0728
     30 C         137.3662  142.7805  163.5400 C.3     1  UNL1        0.0728
     31 C         137.3833  141.3233  163.1850 C.3     1  UNL1        0.0188
     32 C         142.3316  136.2960  156.0797 C.ar    1  UNL1        0.0000
     33 C         141.3709  136.2249  154.9299 C.ar    1  UNL1        0.0000
     34 C         141.1813  134.9341  154.1897 C.ar    1  UNL1        0.0015
     35 C         141.9525  133.7144  154.5992 C.ar    1  UNL1        0.0172
     36 C         142.9132  133.7855  155.7491 C.ar    1  UNL1        0.0015
     37 C         143.1027  135.0763  156.4893 C.ar    1  UNL1        0.0000
     38 C         141.7629  132.4236  153.8590 C.ar    1  UNL1        0.0769
     39 C         142.3042  132.1000  152.4980 C.ar    1  UNL1        0.1171
     40 N         141.8746  130.7062  152.1477 N.ar    1  UNL1       -0.2279
     41 C         141.0679  130.1684  153.2922 C.ar    1  UNL1        0.1353
     42 N         140.9989  131.2298  154.3499 N.ar    1  UNL1       -0.3394
     43 H         140.5338  131.1558  155.2144 H       1  UNL1        0.1671
     44 C         140.4404  128.8079  153.3661 C.3     1  UNL1        0.1319
     45 C         139.5466  128.1919  152.3310 C.3     1  UNL1        0.0293
     46 C         139.1503  126.8279  152.8133 C.3     1  UNL1        0.0237
     47 C         139.7992  126.6010  154.1465 C.3     1  UNL1        0.0939
     48 N         140.5965  127.8247  154.4881 N.am    1  UNL1       -0.2730
     49 C         141.4076  128.0293  155.7332 C.2     1  UNL1        0.2439
     50 O         142.1563  129.3128  155.9381 O.2     1  UNL1       -0.2731
     51 C         141.4700  126.9503  156.7735 C.3     1  UNL1        0.1513
     52 C         140.2034  126.3825  157.3419 C.3     1  UNL1        0.0313
     53 N         142.7989  126.4393  157.2451 N.am    1  UNL1       -0.2640
     54 C         143.4952  127.1082  158.3931 C.2     1  UNL1        0.4021
     55 O         142.8624  128.2882  159.0693 O.2     1  UNL1       -0.2264
     56 H         143.2142  125.6649  156.8013 H       1  UNL1        0.1532
     57 O         144.8243  126.5972  158.8648 O.3     1  UNL1       -0.4306
     58 C         145.8498  127.5539  159.3967 C.3     1  UNL1        0.2573
@<TRIPOS>BOND
     1    28    29    1
     2    29    27    1
     3    27    30    1
     4    30    31    1
     5    20    27    1
     6    20    13    1
     7    13    14    2
     8    13    15   am
     9    15    16    1
    10    16    17    1
    11    17    18    1
    12    18    19    1
    13    19     7    1
    14     7     8   ar
    15     8     9   ar
    16     9    10   ar
    17    10     1    1
    18     1     2   ar
    19     2     3   ar
    20     3     4   ar
    21     4    32    1
    22    32    33   ar
    23    33    34   ar
    24    34    35   ar
    25    35    38    1
    26    38    39   ar
    27    39    40   ar
    28    40    41   ar
    29    44    41    1
    30    44    45    1
    31    45    46    1
    32    46    47    1
    33    47    48    1
    34    48    49   am
    35    49    50    2
    36    49    51    1
    37    51    52    1
    38    51    53    1
    39    53    54   am
    40    54    55    2
    41    54    57    1
    42    57    58    1
    43    41    42   ar
    44    35    36   ar
    45    36    37   ar
    46     4     5   ar
    47     5     6   ar
    48    10    11   ar
    49    20    21    1
    50    21    22   ar
    51    22    23   ar
    52    23    24   ar
    53    24    25   ar
    54    25    26   ar
    55    19    15    1
    56    11     7   ar
    57    26    21   ar
    58     6     1   ar
    59    37    32   ar
    60    42    38   ar
    61    48    44    1
    62    53    56    1
    63    42    43    1
    64    11    12    1
@<TRIPOS>MOLECULE
*****
 58 64 0 0 0
SMALL
GASTEIGER

@<TRIPOS>ATOM
      1 C         142.1084  140.2390  159.6164 C.ar    1  UNL1        0.0172
      2 C         141.9993  140.3790  158.1270 C.ar    1  UNL1        0.0015
      3 C         142.1382  139.1716  157.2480 C.ar    1  UNL1        0.0000
      4 C         142.3862  137.8240  157.8585 C.ar    1  UNL1        0.0000
      5 C         142.4952  137.6840  159.3479 C.ar    1  UNL1        0.0000
      6 C         142.3563  138.8914  160.2269 C.ar    1  UNL1        0.0015
      7 C         141.1929  142.9721  162.2160 C.ar    1  UNL1        0.1353
      8 N         142.3185  143.6371  161.4804 N.ar    1  UNL1       -0.2279
      9 C         142.7984  142.6942  160.4171 C.ar    1  UNL1        0.1171
     10 C         141.9695  141.4465  160.4955 C.ar    1  UNL1        0.0769
     11 N         140.9772  141.6183  161.6072 N.ar    1  UNL1       -0.3394
     12 H         140.3028  140.9583  161.8880 H       1  UNL1        0.1671
     13 C         140.8173  141.6289  165.1662 C.2     1  UNL1        0.2447
     14 O         141.6469  140.8085  164.2235 O.2     1  UNL1       -0.2730
     15 N         140.2463  142.9407  164.7155 N.am    1  UNL1       -0.2730
     16 C         139.4024  143.8655  165.5417 C.3     1  UNL1        0.0939
     17 C         139.0535  145.0544  164.6963 C.3     1  UNL1        0.0237
     18 C         139.6818  144.8644  163.3475 C.3     1  UNL1        0.0293
     19 C         140.4189  143.5581  163.3594 C.3     1  UNL1        0.1319
     20 C         140.5587  141.1375  166.5596 C.3     1  UNL1        0.1578
     21 C         141.2982  141.7407  167.7170 C.ar    1  UNL1        0.0010
     22 C         142.7349  141.3831  167.9575 C.ar    1  UNL1       -0.0025
     23 C         143.4743  141.9863  169.1148 C.ar    1  UNL1       -0.0003
     24 C         142.7770  142.9471  170.0315 C.ar    1  UNL1       -0.0000
     25 C         141.3403  143.3047  169.7910 C.ar    1  UNL1       -0.0003
     26 C         140.6009  142.7016  168.6338 C.ar    1  UNL1       -0.0025
     27 N         139.5607  140.0429  166.7957 N.3     1  UNL1       -0.2631
     28 C         140.1518  138.0954  165.1808 C.3     1  UNL1        0.0188
     29 C         139.1771  139.1230  165.6746 C.3     1  UNL1        0.0728
     30 C         138.9461  139.8680  168.1528 C.3     1  UNL1        0.0728
     31 C         137.7729  138.9509  168.3323 C.3     1  UNL1        0.0188
     32 C         142.5251  136.6165  156.9794 C.ar    1  UNL1        0.0000
     33 C         141.8542  136.5840  155.6382 C.ar    1  UNL1        0.0000
     34 C         141.9931  135.3765  154.7591 C.ar    1  UNL1        0.0015
     35 C         142.8029  134.2015  155.2214 C.ar    1  UNL1        0.0172
     36 C         143.4737  134.2340  156.5626 C.ar    1  UNL1        0.0015
     37 C         143.3348  135.4415  157.4416 C.ar    1  UNL1        0.0000
     38 C         142.9418  132.9940  154.3424 C.ar    1  UNL1        0.0769
     39 C         142.3697  132.8357  152.9648 C.ar    1  UNL1        0.1171
     40 N         142.7515  131.4767  152.4577 N.ar    1  UNL1       -0.2279
     41 C         143.5596  130.7950  153.5219 C.ar    1  UNL1        0.1353
     42 N         143.6772  131.7328  154.6866 N.ar    1  UNL1       -0.3394
     43 H         144.1534  131.5522  155.5292 H       1  UNL1        0.1671
     44 C         144.1470  129.4174  153.4362 C.3     1  UNL1        0.1319
     45 C         145.0786  128.9209  152.3707 C.3     1  UNL1        0.0293
     46 C         145.4132  127.4911  152.6770 C.3     1  UNL1        0.0237
     47 C         144.6884  127.1041  153.9320 C.3     1  UNL1        0.0939
     48 N         143.9058  128.2946  154.4011 N.am    1  UNL1       -0.2730
     49 C         143.0350  128.3522  155.6210 C.2     1  UNL1        0.2439
     50 O         142.3097  129.6192  155.9657 O.2     1  UNL1       -0.2731
     51 C         142.8893  127.1427  156.4964 C.3     1  UNL1        0.1513
     52 C         141.5837  126.4059  156.5463 C.3     1  UNL1        0.0313
     53 N         144.0492  126.6702  157.3217 N.am    1  UNL1       -0.2640
     54 C         144.5517  127.5094  158.4589 C.2     1  UNL1        0.4021
     55 O         143.8943  128.8211  158.7707 O.2     1  UNL1       -0.2264
     56 H         144.4807  125.8093  157.1170 H       1  UNL1        0.1532
     57 O         145.7117  127.0369  159.2843 O.3     1  UNL1       -0.4306
     58 C         146.6137  128.0333  159.9503 C.3     1  UNL1        0.2573
@<TRIPOS>BOND
     1    28    29    1
     2    29    27    1
     3    27    30    1
     4    30    31    1
     5    20    27    1
     6    20    13    1
     7    13    14    2
     8    13    15   am
     9    15    16    1
    10    16    17    1
    11    17    18    1
    12    18    19    1
    13    19     7    1
    14     7     8   ar
    15     8     9   ar
    16     9    10   ar
    17    10     1    1
    18     1     2   ar
    19     2     3   ar
    20     3     4   ar
    21     4    32    1
    22    32    33   ar
    23    33    34   ar
    24    34    35   ar
    25    35    38    1
    26    38    39   ar
    27    39    40   ar
    28    40    41   ar
    29    44    41    1
    30    44    45    1
    31    45    46    1
    32    46    47    1
    33    47    48    1
    34    48    49   am
    35    49    50    2
    36    49    51    1
    37    51    52    1
    38    51    53    1
    39    53    54   am
    40    54    55    2
    41    54    57    1
    42    57    58    1
    43    41    42   ar
    44    35    36   ar
    45    36    37   ar
    46     4     5   ar
    47     5     6   ar
    48    10    11   ar
    49    20    21    1
    50    21    22   ar
    51    22    23   ar
    52    23    24   ar
    53    24    25   ar
    54    25    26   ar
    55    19    15    1
    56    11     7   ar
    57    26    21   ar
    58     6     1   ar
    59    37    32   ar
    60    42    38   ar
    61    48    44    1
    62    53    56    1
    63    42    43    1
    64    11    12    1
@<TRIPOS>MOLECULE
*****
 58 64 0 0 0
SMALL
GASTEIGER

@<TRIPOS>ATOM
      1 C         142.0848  139.9197  159.3451 C.ar    1  UNL1        0.0172
      2 C         141.6028  139.9950  157.9266 C.ar    1  UNL1        0.0015
      3 C         141.6660  138.7811  157.0477 C.ar    1  UNL1        0.0000
      4 C         142.2112  137.4921  157.5872 C.ar    1  UNL1        0.0000
      5 C         142.6932  137.4168  159.0056 C.ar    1  UNL1        0.0000
      6 C         142.6300  138.6307  159.8846 C.ar    1  UNL1        0.0015
      7 C         141.3395  142.7065  161.9421 C.ar    1  UNL1        0.1353
      8 N         142.5091  143.2965  161.2113 N.ar    1  UNL1       -0.2279
      9 C         142.9307  142.3244  160.1496 C.ar    1  UNL1        0.1171
     10 C         142.0216  141.1336  160.2241 C.ar    1  UNL1        0.0769
     11 N         141.0382  141.3698  161.3319 N.ar    1  UNL1       -0.3394
     12 H         140.3210  140.7552  161.6098 H       1  UNL1        0.1671
     13 C         140.8695  141.3924  164.8919 C.2     1  UNL1        0.2447
     14 O         141.6480  140.5199  163.9524 O.2     1  UNL1       -0.2730
     15 N         140.3849  142.7377  164.4386 N.am    1  UNL1       -0.2730
     16 C         139.5992  143.7151  165.2615 C.3     1  UNL1        0.0939
     17 C         139.3297  144.9232  164.4143 C.3     1  UNL1        0.0237
     18 C         139.9488  144.6924  163.0676 C.3     1  UNL1        0.0293
     19 C         140.6010  143.3417  163.0827 C.3     1  UNL1        0.1319
     20 C         140.5756  140.9197  166.2848 C.3     1  UNL1        0.1578
     21 C         139.5553  139.8439  166.5121 C.ar    1  UNL1        0.0010
     22 C         139.3450  138.7788  165.4769 C.ar    1  UNL1       -0.0025
     23 C         138.3247  137.7030  165.7042 C.ar    1  UNL1       -0.0003
     24 C         137.5147  137.6923  166.9666 C.ar    1  UNL1       -0.0000
     25 C         137.7249  138.7573  168.0017 C.ar    1  UNL1       -0.0003
     26 C         138.7452  139.8331  167.7744 C.ar    1  UNL1       -0.0025
     27 N         141.3020  141.5227  167.4504 N.3     1  UNL1       -0.2631
     28 C         142.5998  139.5357  168.5075 C.3     1  UNL1        0.0188
     29 C         142.5899  140.9182  167.9257 C.3     1  UNL1        0.0728
     30 C         140.7406  142.7303  168.1408 C.3     1  UNL1        0.0728
     31 C         140.9231  142.9012  169.6197 C.3     1  UNL1        0.0188
     32 C         142.2744  136.2782  156.7082 C.ar    1  UNL1        0.0000
     33 C         143.3541  135.2577  156.9152 C.ar    1  UNL1        0.0000
     34 C         143.4172  134.0438  156.0361 C.ar    1  UNL1        0.0015
     35 C         142.4007  133.8505  154.9502 C.ar    1  UNL1        0.0172
     36 C         141.3209  134.8710  154.7433 C.ar    1  UNL1        0.0015
     37 C         141.2578  136.0848  155.6223 C.ar    1  UNL1        0.0000
     38 C         142.4638  132.6367  154.0713 C.ar    1  UNL1        0.0769
     39 C         142.5996  132.6360  152.5774 C.ar    1  UNL1        0.1171
     40 N         142.6219  131.2093  152.1147 N.ar    1  UNL1       -0.2279
     41 C         142.5000  130.3283  153.3226 C.ar    1  UNL1        0.1353
     42 N         142.4022  131.2105  154.5318 N.ar    1  UNL1       -0.3394
     43 H         142.3133  130.9067  155.4640 H       1  UNL1        0.1671
     44 C         142.4794  128.8284  153.3215 C.3     1  UNL1        0.1319
     45 C         141.5422  127.9601  152.5355 C.3     1  UNL1        0.0293
     46 C         141.8759  126.5286  152.8343 C.3     1  UNL1        0.0237
     47 C         143.0194  126.5122  153.8051 C.3     1  UNL1        0.0939
     48 N         143.3923  127.9335  154.1061 N.am    1  UNL1       -0.2730
     49 C         144.4861  128.3814  155.0296 C.2     1  UNL1        0.2439
     50 O         144.7440  129.8450  155.2326 O.2     1  UNL1       -0.2731
     51 C         145.3221  127.3655  155.7503 C.3     1  UNL1        0.1513
     52 C         146.6932  127.0276  155.2446 C.3     1  UNL1        0.0313
     53 N         144.7869  126.6876  156.9766 N.am    1  UNL1       -0.2640
     54 C         144.7383  127.4264  158.2811 C.2     1  UNL1        0.4021
     55 O         145.2249  128.8431  158.3593 O.2     1  UNL1       -0.2264
     56 H         144.4675  125.7578  156.9253 H       1  UNL1        0.1532
     57 O         144.2030  126.7485  159.5075 O.3     1  UNL1       -0.4306
     58 C         142.7243  126.7054  159.7557 C.3     1  UNL1        0.2573
@<TRIPOS>BOND
     1    28    29    1
     2    29    27    1
     3    27    30    1
     4    30    31    1
     5    20    27    1
     6    20    13    1
     7    13    14    2
     8    13    15   am
     9    15    16    1
    10    16    17    1
    11    17    18    1
    12    18    19    1
    13    19     7    1
    14     7     8   ar
    15     8     9   ar
    16     9    10   ar
    17    10     1    1
    18     1     2   ar
    19     2     3   ar
    20     3     4   ar
    21     4    32    1
    22    32    33   ar
    23    33    34   ar
    24    34    35   ar
    25    35    38    1
    26    38    39   ar
    27    39    40   ar
    28    40    41   ar
    29    44    41    1
    30    44    45    1
    31    45    46    1
    32    46    47    1
    33    47    48    1
    34    48    49   am
    35    49    50    2
    36    49    51    1
    37    51    52    1
    38    51    53    1
    39    53    54   am
    40    54    55    2
    41    54    57    1
    42    57    58    1
    43    41    42   ar
    44    35    36   ar
    45    36    37   ar
    46     4     5   ar
    47     5     6   ar
    48    10    11   ar
    49    20    21    1
    50    21    22   ar
    51    22    23   ar
    52    23    24   ar
    53    24    25   ar
    54    25    26   ar
    55    19    15    1
    56    11     7   ar
    57    26    21   ar
    58     6     1   ar
    59    37    32   ar
    60    42    38   ar
    61    48    44    1
    62    53    56    1
    63    42    43    1
    64    11    12    1
@<TRIPOS>MOLECULE
*****
 58 64 0 0 0
SMALL
GASTEIGER

@<TRIPOS>ATOM
      1 C         143.2029  139.4487  159.4878 C.ar    1  UNL1        0.0172
      2 C         142.9582  139.6803  158.0262 C.ar    1  UNL1        0.0015
      3 C         142.6985  138.5169  157.1157 C.ar    1  UNL1        0.0000
      4 C         142.6835  137.1219  157.6669 C.ar    1  UNL1        0.0000
      5 C         142.9282  136.8904  159.1285 C.ar    1  UNL1        0.0000
      6 C         143.1879  138.0538  160.0390 C.ar    1  UNL1        0.0015
      7 C         143.1257  142.4690  161.9247 C.ar    1  UNL1        0.1353
      8 N         144.5987  142.3360  161.6743 N.ar    1  UNL1       -0.2279
      9 C         144.8069  141.1885  160.7310 C.ar    1  UNL1        0.1171
     10 C         143.4626  140.6122  160.3983 C.ar    1  UNL1        0.0769
     11 N         142.4236  141.4035  161.1360 N.ar    1  UNL1       -0.3394
     12 H         141.4514  141.2505  161.1076 H       1  UNL1        0.1671
     13 C         141.2119  141.8355  164.4909 C.2     1  UNL1        0.2447
     14 O         141.7262  140.6097  163.7961 O.2     1  UNL1       -0.2730
     15 N         141.5903  143.1971  163.9879 N.am    1  UNL1       -0.2730
     16 C         141.1555  144.5066  164.5763 C.3     1  UNL1        0.0939
     17 C         141.7664  145.6070  163.7603 C.3     1  UNL1        0.0237
     18 C         142.5788  144.9776  162.6677 C.3     1  UNL1        0.0293
     19 C         142.4699  143.4883  162.8084 C.3     1  UNL1        0.1319
     20 C         140.3191  141.6998  165.6886 C.3     1  UNL1        0.1578
     21 C         140.8192  142.0974  167.0457 C.ar    1  UNL1        0.0010
     22 C         142.1335  141.5734  167.5438 C.ar    1  UNL1       -0.0025
     23 C         142.6336  141.9709  168.9010 C.ar    1  UNL1       -0.0003
     24 C         141.8195  142.8924  169.7600 C.ar    1  UNL1       -0.0000
     25 C         140.5052  143.4163  169.2619 C.ar    1  UNL1       -0.0003
     26 C         140.0051  143.0188  167.9048 C.ar    1  UNL1       -0.0025
     27 N         138.9262  141.1666  165.5291 N.3     1  UNL1       -0.2631
     28 C         139.1981  138.5999  165.8271 C.3     1  UNL1        0.0188
     29 C         138.5303  139.8882  166.2069 C.3     1  UNL1        0.0728
     30 C         137.9291  141.9115  164.6919 C.3     1  UNL1        0.0728
     31 C         137.5124  141.3654  163.3585 C.3     1  UNL1        0.0188
     32 C         142.4238  135.9585  156.7564 C.ar    1  UNL1        0.0000
     33 C         143.1469  134.6620  156.9712 C.ar    1  UNL1        0.0000
     34 C         142.8872  133.4985  156.0606 C.ar    1  UNL1        0.0015
     35 C         141.9044  133.6316  154.9353 C.ar    1  UNL1        0.0172
     36 C         141.1813  134.9283  154.7205 C.ar    1  UNL1        0.0015
     37 C         141.4410  136.0916  155.6310 C.ar    1  UNL1        0.0000
     38 C         141.6446  132.4683  154.0248 C.ar    1  UNL1        0.0769
     39 C         141.2229  132.5504  152.5876 C.ar    1  UNL1        0.1171
     40 N         141.0786  131.1514  152.0661 N.ar    1  UNL1       -0.2279
     41 C         141.4112  130.2046  153.1811 C.ar    1  UNL1        0.1353
     42 N         141.7610  131.0185  154.3915 N.ar    1  UNL1       -0.3394
     43 H         142.0213  130.6635  155.2721 H       1  UNL1        0.1671
     44 C         141.3966  128.7069  153.0998 C.3     1  UNL1        0.1319
     45 C         140.2357  127.8584  152.6726 C.3     1  UNL1        0.0293
     46 C         140.6619  126.4218  152.7402 C.3     1  UNL1        0.0237
     47 C         142.0862  126.3824  153.2091 C.3     1  UNL1        0.0939
     48 N         142.5402  127.7947  153.4313 N.am    1  UNL1       -0.2730
     49 C         143.8993  128.2200  153.9024 C.2     1  UNL1        0.2439
     50 O         144.2098  129.6769  154.0794 O.2     1  UNL1       -0.2731
     51 C         144.9480  127.1886  154.1964 C.3     1  UNL1        0.1513
     52 C         145.5496  126.3906  153.0779 C.3     1  UNL1        0.0313
     53 N         145.3950  126.9552  155.6091 N.am    1  UNL1       -0.2640
     54 C         144.3831  126.8850  156.7140 C.2     1  UNL1        0.4021
     55 O         142.9241  127.0482  156.4063 O.2     1  UNL1       -0.2264
     56 H         146.3526  126.8481  155.8110 H       1  UNL1        0.1532
     57 O         144.8301  126.6516  158.1267 O.3     1  UNL1       -0.4306
     58 C         145.6843  127.6705  158.8212 C.3     1  UNL1        0.2573
@<TRIPOS>BOND
     1    28    29    1
     2    29    27    1
     3    27    30    1
     4    30    31    1
     5    20    27    1
     6    20    13    1
     7    13    14    2
     8    13    15   am
     9    15    16    1
    10    16    17    1
    11    17    18    1
    12    18    19    1
    13    19     7    1
    14     7     8   ar
    15     8     9   ar
    16     9    10   ar
    17    10     1    1
    18     1     2   ar
    19     2     3   ar
    20     3     4   ar
    21     4    32    1
    22    32    33   ar
    23    33    34   ar
    24    34    35   ar
    25    35    38    1
    26    38    39   ar
    27    39    40   ar
    28    40    41   ar
    29    44    41    1
    30    44    45    1
    31    45    46    1
    32    46    47    1
    33    47    48    1
    34    48    49   am
    35    49    50    2
    36    49    51    1
    37    51    52    1
    38    51    53    1
    39    53    54   am
    40    54    55    2
    41    54    57    1
    42    57    58    1
    43    41    42   ar
    44    35    36   ar
    45    36    37   ar
    46     4     5   ar
    47     5     6   ar
    48    10    11   ar
    49    20    21    1
    50    21    22   ar
    51    22    23   ar
    52    23    24   ar
    53    24    25   ar
    54    25    26   ar
    55    19    15    1
    56    11     7   ar
    57    26    21   ar
    58     6     1   ar
    59    37    32   ar
    60    42    38   ar
    61    48    44    1
    62    53    56    1
    63    42    43    1
    64    11    12    1
@<TRIPOS>MOLECULE
*****
 58 64 0 0 0
SMALL
GASTEIGER

@<TRIPOS>ATOM
      1 C         135.2097  141.6903  155.4223 C.ar    1  UNL1        0.0172
      2 C         135.1031  140.5776  156.4225 C.ar    1  UNL1        0.0015
      3 C         136.1352  140.4381  157.5020 C.ar    1  UNL1        0.0000
      4 C         137.2738  141.4113  157.5813 C.ar    1  UNL1        0.0000
      5 C         137.3804  142.5241  156.5812 C.ar    1  UNL1        0.0000
      6 C         136.3484  142.6636  155.5017 C.ar    1  UNL1        0.0015
      7 C         132.0707  142.2068  153.1984 C.ar    1  UNL1        0.1353
      8 N         133.1082  141.8825  152.1647 N.ar    1  UNL1       -0.2279
      9 C         134.4103  141.6496  152.8719 C.ar    1  UNL1        0.1171
     10 C         134.1777  141.8299  154.3428 C.ar    1  UNL1        0.0769
     11 N         132.7317  142.1742  154.5445 N.ar    1  UNL1       -0.3394
     12 H         132.2935  142.3483  155.4088 H       1  UNL1        0.1671
     13 C         129.5140  140.7597  154.6191 C.2     1  UNL1        0.2447
     14 O         130.8433  140.2461  155.0870 O.2     1  UNL1       -0.2730
     15 N         129.4508  141.8451  153.5857 N.am    1  UNL1       -0.2730
     16 C         128.2013  142.4560  153.0239 C.3     1  UNL1        0.0939
     17 C         128.6043  143.4986  152.0236 C.3     1  UNL1        0.0237
     18 C         130.1029  143.5321  151.9673 C.3     1  UNL1        0.0293
     19 C         130.6260  142.5103  152.9327 C.3     1  UNL1        0.1319
     20 C         128.2478  140.1880  155.1846 C.3     1  UNL1        0.1578
     21 C         127.7131  140.6962  156.4907 C.ar    1  UNL1        0.0010
     22 C         127.7435  139.8179  157.7063 C.ar    1  UNL1       -0.0025
     23 C         127.2089  140.3261  159.0124 C.ar    1  UNL1       -0.0003
     24 C         126.6438  141.7126  159.1029 C.ar    1  UNL1       -0.0000
     25 C         126.6134  142.5909  157.8873 C.ar    1  UNL1       -0.0003
     26 C         127.1480  142.0827  156.5813 C.ar    1  UNL1       -0.0025
     27 N         127.5162  139.1080  154.4440 N.3     1  UNL1       -0.2631
     28 C         126.4773  138.8020  152.0824 C.3     1  UNL1        0.0188
     29 C         126.4757  139.4694  153.4257 C.3     1  UNL1        0.0728
     30 C         127.8251  137.6666  154.7216 C.3     1  UNL1        0.0728
     31 C         126.7203  136.7192  155.0842 C.3     1  UNL1        0.0188
     32 C         138.3059  141.2718  158.6609 C.ar    1  UNL1        0.0000
     33 C         138.5292  139.9418  159.3176 C.ar    1  UNL1        0.0000
     34 C         139.5613  139.8023  160.3972 C.ar    1  UNL1        0.0015
     35 C         140.3700  140.9927  160.8200 C.ar    1  UNL1        0.0172
     36 C         140.1466  142.3228  160.1633 C.ar    1  UNL1        0.0015
     37 C         139.1146  142.4622  159.0838 C.ar    1  UNL1        0.0000
     38 C         141.4020  140.8532  161.8996 C.ar    1  UNL1        0.0769
     39 C         142.7943  141.4104  161.8656 C.ar    1  UNL1        0.1171
     40 N         143.4758  141.0336  163.1476 N.ar    1  UNL1       -0.2279
     41 C         142.5046  140.2436  163.9740 C.ar    1  UNL1        0.1353
     42 N         141.2230  140.1321  163.2026 N.ar    1  UNL1       -0.3394
     43 H         140.4075  139.6673  163.4994 H       1  UNL1        0.1671
     44 C         142.7687  139.6663  165.3330 C.3     1  UNL1        0.1319
     45 C         143.6682  138.5055  165.6383 C.3     1  UNL1        0.0293
     46 C         143.6351  138.2703  167.1193 C.3     1  UNL1        0.0237
     47 C         142.7151  139.2859  167.7295 C.3     1  UNL1        0.0939
     48 N         142.1797  140.1486  166.6254 N.am    1  UNL1       -0.2730
     49 C         141.2231  141.2928  166.7857 C.2     1  UNL1        0.2439
     50 O         140.7735  142.0686  165.5832 O.2     1  UNL1       -0.2731
     51 C         140.7161  141.6613  168.1486 C.3     1  UNL1        0.1513
     52 C         141.2410  142.8854  168.8384 C.3     1  UNL1        0.0313
     53 N         139.6842  140.8056  168.8215 N.am    1  UNL1       -0.2640
     54 C         139.9058  140.3282  170.2261 C.2     1  UNL1        0.4021
     55 O         141.1594  140.7065  170.9578 O.2     1  UNL1       -0.2264
     56 H         138.8614  140.5574  168.3412 H       1  UNL1        0.1532
     57 O         138.8738  139.4725  170.8990 O.3     1  UNL1       -0.4306
     58 C         137.4430  139.5326  170.4530 C.3     1  UNL1        0.2573
@<TRIPOS>BOND
     1    28    29    1
     2    29    27    1
     3    27    30    1
     4    30    31    1
     5    20    27    1
     6    20    13    1
     7    13    14    2
     8    13    15   am
     9    15    16    1
    10    16    17    1
    11    17    18    1
    12    18    19    1
    13    19     7    1
    14     7     8   ar
    15     8     9   ar
    16     9    10   ar
    17    10     1    1
    18     1     2   ar
    19     2     3   ar
    20     3     4   ar
    21     4    32    1
    22    32    33   ar
    23    33    34   ar
    24    34    35   ar
    25    35    38    1
    26    38    39   ar
    27    39    40   ar
    28    40    41   ar
    29    44    41    1
    30    44    45    1
    31    45    46    1
    32    46    47    1
    33    47    48    1
    34    48    49   am
    35    49    50    2
    36    49    51    1
    37    51    52    1
    38    51    53    1
    39    53    54   am
    40    54    55    2
    41    54    57    1
    42    57    58    1
    43    41    42   ar
    44    35    36   ar
    45    36    37   ar
    46     4     5   ar
    47     5     6   ar
    48    10    11   ar
    49    20    21    1
    50    21    22   ar
    51    22    23   ar
    52    23    24   ar
    53    24    25   ar
    54    25    26   ar
    55    19    15    1
    56    11     7   ar
    57    26    21   ar
    58     6     1   ar
    59    37    32   ar
    60    42    38   ar
    61    48    44    1
    62    53    56    1
    63    42    43    1
    64    11    12    1
@<TRIPOS>MOLECULE
*****
 58 64 0 0 0
SMALL
GASTEIGER

@<TRIPOS>ATOM
      1 C         134.2874  141.5179  154.8036 C.ar    1  UNL1        0.0172
      2 C         134.2701  140.6462  156.0242 C.ar    1  UNL1        0.0015
      3 C         135.5348  140.4109  156.7957 C.ar    1  UNL1        0.0000
      4 C         136.8167  141.0473  156.3465 C.ar    1  UNL1        0.0000
      5 C         136.8340  141.9190  155.1260 C.ar    1  UNL1        0.0000
      6 C         135.5693  142.1543  154.3545 C.ar    1  UNL1        0.0015
      7 C         130.6800  142.0655  153.4796 C.ar    1  UNL1        0.1353
      8 N         131.4730  142.1653  152.2102 N.ar    1  UNL1       -0.2279
      9 C         132.9208  141.9723  152.5517 C.ar    1  UNL1        0.1171
     10 C         133.0227  141.7533  154.0321 C.ar    1  UNL1        0.0769
     11 N         131.6378  141.8108  154.6056 N.ar    1  UNL1       -0.3394
     12 H         131.3994  141.7008  155.5544 H       1  UNL1        0.1671
     13 C         128.7487  140.2825  155.4136 C.2     1  UNL1        0.2447
     14 O         130.2022  139.9231  155.5044 O.2     1  UNL1       -0.2730
     15 N         128.3031  141.3777  154.4905 N.am    1  UNL1       -0.2730
     16 C         126.8915  141.8455  154.2944 C.3     1  UNL1        0.0939
     17 C         126.9069  142.9542  153.2842 C.3     1  UNL1        0.0237
     18 C         128.3279  143.1716  152.8560 C.3     1  UNL1        0.0293
     19 C         129.1908  142.1972  153.6016 C.3     1  UNL1        0.1319
     20 C         127.7409  139.5467  156.2460 C.3     1  UNL1        0.1578
     21 C         127.5086  139.9492  157.6722 C.ar    1  UNL1        0.0010
     22 C         126.7073  141.1785  157.9835 C.ar    1  UNL1       -0.0025
     23 C         126.4750  141.5810  159.4097 C.ar    1  UNL1       -0.0003
     24 C         127.0440  140.7543  160.5245 C.ar    1  UNL1       -0.0000
     25 C         127.8453  139.5251  160.2131 C.ar    1  UNL1       -0.0003
     26 C         128.0776  139.1226  158.7870 C.ar    1  UNL1       -0.0025
     27 N         126.9653  138.4084  155.6521 N.3     1  UNL1       -0.2631
     28 C         127.4592  138.4572  153.1018 C.3     1  UNL1        0.0188
     29 C         126.4780  138.4909  154.2358 C.3     1  UNL1        0.0728
     30 C         126.6770  137.1874  156.4743 C.3     1  UNL1        0.0728
     31 C         127.8047  136.3210  156.9514 C.3     1  UNL1        0.0188
     32 C         138.0814  140.8120  157.1181 C.ar    1  UNL1        0.0000
     33 C         138.0175  140.4758  158.5785 C.ar    1  UNL1        0.0000
     34 C         139.2822  140.2404  159.3500 C.ar    1  UNL1        0.0015
     35 C         140.6108  140.3413  158.6611 C.ar    1  UNL1        0.0172
     36 C         140.6747  140.6775  157.2006 C.ar    1  UNL1        0.0015
     37 C         139.4100  140.9128  156.4291 C.ar    1  UNL1        0.0000
     38 C         141.8755  140.1060  159.4325 C.ar    1  UNL1        0.0769
     39 C         142.9848  139.1740  159.0440 C.ar    1  UNL1        0.1171
     40 N         144.0478  139.2534  160.0993 N.ar    1  UNL1       -0.2279
     41 C         143.5954  140.2343  161.1401 C.ar    1  UNL1        0.1353
     42 N         142.2529  140.7613  160.7280 N.ar    1  UNL1       -0.3394
     43 H         141.7140  141.4213  161.2211 H       1  UNL1        0.1671
     44 C         144.3527  140.6206  162.3760 C.3     1  UNL1        0.1319
     45 C         145.5451  141.5289  162.4316 C.3     1  UNL1        0.0293
     46 C         145.9799  141.6360  163.8632 C.3     1  UNL1        0.0237
     47 C         145.0561  140.7938  164.6924 C.3     1  UNL1        0.0939
     48 N         144.0505  140.1663  163.7732 N.am    1  UNL1       -0.2730
     49 C         142.9380  139.2461  164.1799 C.2     1  UNL1        0.2439
     50 O         142.0052  138.6933  163.1434 O.2     1  UNL1       -0.2731
     51 C         142.7582  138.8787  165.6231 C.3     1  UNL1        0.1513
     52 C         143.8225  138.0990  166.3368 C.3     1  UNL1        0.0313
     53 N         141.5141  139.2910  166.3526 N.am    1  UNL1       -0.2640
     54 C         141.4256  140.6536  166.9736 C.2     1  UNL1        0.4021
     55 O         142.5812  141.6037  166.8652 O.2     1  UNL1       -0.2264
     56 H         140.7557  138.6674  166.4237 H       1  UNL1        0.1532
     57 O         140.1815  141.0659  167.7031 O.3     1  UNL1       -0.4306
     58 C         139.9777  140.6537  169.1309 C.3     1  UNL1        0.2573
@<TRIPOS>BOND
     1    28    29    1
     2    29    27    1
     3    27    30    1
     4    30    31    1
     5    20    27    1
     6    20    13    1
     7    13    14    2
     8    13    15   am
     9    15    16    1
    10    16    17    1
    11    17    18    1
    12    18    19    1
    13    19     7    1
    14     7     8   ar
    15     8     9   ar
    16     9    10   ar
    17    10     1    1
    18     1     2   ar
    19     2     3   ar
    20     3     4   ar
    21     4    32    1
    22    32    33   ar
    23    33    34   ar
    24    34    35   ar
    25    35    38    1
    26    38    39   ar
    27    39    40   ar
    28    40    41   ar
    29    44    41    1
    30    44    45    1
    31    45    46    1
    32    46    47    1
    33    47    48    1
    34    48    49   am
    35    49    50    2
    36    49    51    1
    37    51    52    1
    38    51    53    1
    39    53    54   am
    40    54    55    2
    41    54    57    1
    42    57    58    1
    43    41    42   ar
    44    35    36   ar
    45    36    37   ar
    46     4     5   ar
    47     5     6   ar
    48    10    11   ar
    49    20    21    1
    50    21    22   ar
    51    22    23   ar
    52    23    24   ar
    53    24    25   ar
    54    25    26   ar
    55    19    15    1
    56    11     7   ar
    57    26    21   ar
    58     6     1   ar
    59    37    32   ar
    60    42    38   ar
    61    48    44    1
    62    53    56    1
    63    42    43    1
    64    11    12    1
