@<TRIPOS>MOLECULE
*****
 33 35 0 0 0
SMALL
GASTEIGER

@<TRIPOS>ATOM
      1 C         140.1566  140.0828  166.8024 C.ar    1  UNL1        0.0730
      2 C         139.9361  139.3120  165.5347 C.ar    1  UNL1        0.0322
      3 C         138.8129  138.3217  165.4448 C.ar    1  UNL1        0.0653
      4 C         137.9104  138.1024  166.6226 C.ar    1  UNL1        0.1133
      5 N         138.1309  138.8732  167.8903 N.ar    1  UNL1       -0.2367
      6 C         139.2540  139.8635  167.9802 C.ar    1  UNL1        0.1476
      7 C         139.4745  140.6343  169.2479 C.2     1  UNL1        0.2617
      8 N         139.2169  139.9848  170.5752 N.am    1  UNL1       -0.3240
      9 O         139.9527  142.0549  169.1884 O.2     1  UNL1       -0.2687
     10 H         138.9030  139.0524  170.6143 H       1  UNL1        0.1453
     11 H         139.3616  140.4907  171.4072 H       1  UNL1        0.1453
     12 N         141.2797  141.0731  166.8923 N.pl3   1  UNL1       -0.2965
     13 H         141.9852  140.9571  167.5691 H       1  UNL1        0.1537
     14 C         140.1168  144.1470  164.6677 C.ar    1  UNL1        0.1427
     15 C         141.4240  144.5739  164.0686 C.ar    1  UNL1        0.0517
     16 C         142.6831  143.8339  164.4108 C.ar    1  UNL1        0.0638
     17 C         143.9904  144.2609  163.8116 C.3     1  UNL1        0.0522
     18 N         142.6350  142.6670  165.3520 N.ar    1  UNL1       -0.2347
     19 C         141.3278  142.2401  165.9510 C.ar    1  UNL1        0.1348
     20 C         140.0687  142.9801  165.6089 C.ar    1  UNL1        0.0712
     21 C         138.0590  144.4905  163.1194 C.3     1  UNL1        0.2525
     22 O         138.8577  144.8870  164.3255 O.3     1  UNL1       -0.4713
     23 N         138.5924  137.5508  164.1771 N.pl3   1  UNL1       -0.3316
     24 H         138.2173  136.6413  164.2129 H       1  UNL1        0.1468
     25 C         138.9435  138.1657  162.8546 C.3     1  UNL1        0.0833
     26 C         137.9802  139.0980  162.1816 C.3     1  UNL1        0.0208
     27 C         138.3312  139.7129  160.8592 C.3     1  UNL1        0.0018
     28 C         139.6456  139.3955  160.2099 C.3     1  UNL1        0.0015
     29 C         140.6090  138.4632  160.8830 C.3     1  UNL1        0.0172
     30 C         140.2579  137.8484  162.2053 C.3     1  UNL1        0.0689
     31 N         141.2212  136.9161  162.8784 N.3     1  UNL1       -0.3209
     32 H         140.8230  136.5947  163.7607 H       1  UNL1        0.1189
     33 H         142.0978  137.4053  163.0591 H       1  UNL1        0.1189
@<TRIPOS>BOND
     1    21    22    1
     2    22    14    1
     3    14    15   ar
     4    15    16   ar
     5    16    17    1
     6    16    18   ar
     7    18    19   ar
     8    19    12    1
     9    12     1    1
    10     1     2   ar
    11     2     3   ar
    12     3    23    1
    13    25    23    1
    14    25    26    1
    15    26    27    1
    16    27    28    1
    17    28    29    1
    18    29    30    1
    19    30    31    1
    20     3     4   ar
    21     4     5   ar
    22     5     6   ar
    23     6     7    1
    24     7     8   am
    25     7     9    2
    26    19    20   ar
    27    20    14   ar
    28     6     1   ar
    29    30    25    1
    30    12    13    1
    31    23    24    1
    32    31    32    1
    33    31    33    1
    34     8    10    1
    35     8    11    1
@<TRIPOS>MOLECULE
*****
 33 35 0 0 0
SMALL
GASTEIGER

@<TRIPOS>ATOM
      1 C         140.3013  139.9233  167.0784 C.ar    1  UNL1        0.0730
      2 C         140.1090  139.1790  165.7904 C.ar    1  UNL1        0.0322
      3 C         138.8812  138.3423  165.5839 C.ar    1  UNL1        0.0653
      4 C         137.8459  138.2500  166.6653 C.ar    1  UNL1        0.1133
      5 N         138.0383  138.9943  167.9533 N.ar    1  UNL1       -0.2367
      6 C         139.2660  139.8310  168.1599 C.ar    1  UNL1        0.1476
      7 C         139.4584  140.5753  169.4479 C.2     1  UNL1        0.2617
      8 N         139.1909  139.8921  170.7561 N.am    1  UNL1       -0.3240
      9 O         139.9183  142.0030  169.4276 O.2     1  UNL1       -0.2687
     10 H         138.8890  138.9551  170.7695 H       1  UNL1        0.1453
     11 H         139.3171  140.3806  171.6015 H       1  UNL1        0.1453
     12 N         141.5290  140.7600  167.2850 N.pl3   1  UNL1       -0.2965
     13 H         142.0699  140.6477  168.0999 H       1  UNL1        0.1537
     14 C         143.7471  142.8032  164.7051 C.ar    1  UNL1        0.1427
     15 C         142.7404  143.7831  164.1796 C.ar    1  UNL1        0.0517
     16 C         141.3299  143.7554  164.6893 C.ar    1  UNL1        0.0638
     17 C         140.3231  144.7354  164.1637 C.3     1  UNL1        0.0522
     18 N         140.9261  142.7477  165.7244 N.ar    1  UNL1       -0.2347
     19 C         141.9328  141.7678  166.2498 C.ar    1  UNL1        0.1348
     20 C         143.3433  141.7955  165.7402 C.ar    1  UNL1        0.0712
     21 C         145.7579  141.6006  163.5825 C.3     1  UNL1        0.2525
     22 O         145.1576  142.8309  164.1955 O.3     1  UNL1       -0.4713
     23 N         138.6888  137.5980  164.2959 N.pl3   1  UNL1       -0.3316
     24 H         138.3385  136.6780  164.3066 H       1  UNL1        0.1468
     25 C         139.0300  138.2555  162.9915 C.3     1  UNL1        0.0833
     26 C         138.0993  139.2706  162.3972 C.3     1  UNL1        0.0208
     27 C         138.4406  139.9281  161.0928 C.3     1  UNL1        0.0018
     28 C         139.7126  139.5704  160.3828 C.3     1  UNL1        0.0015
     29 C         140.6433  138.5552  160.9772 C.3     1  UNL1        0.0172
     30 C         140.3020  137.8978  162.2815 C.3     1  UNL1        0.0689
     31 N         141.2327  136.8826  162.8759 N.3     1  UNL1       -0.3209
     32 H         140.8465  136.5415  163.7562 H       1  UNL1        0.1189
     33 H         142.1412  137.3135  163.0474 H       1  UNL1        0.1189
@<TRIPOS>BOND
     1    21    22    1
     2    22    14    1
     3    14    15   ar
     4    15    16   ar
     5    16    17    1
     6    16    18   ar
     7    18    19   ar
     8    19    12    1
     9    12     1    1
    10     1     2   ar
    11     2     3   ar
    12     3    23    1
    13    25    23    1
    14    25    26    1
    15    26    27    1
    16    27    28    1
    17    28    29    1
    18    29    30    1
    19    30    31    1
    20     3     4   ar
    21     4     5   ar
    22     5     6   ar
    23     6     7    1
    24     7     8   am
    25     7     9    2
    26    19    20   ar
    27    20    14   ar
    28     6     1   ar
    29    30    25    1
    30    12    13    1
    31    23    24    1
    32    31    32    1
    33    31    33    1
    34     8    10    1
    35     8    11    1
@<TRIPOS>MOLECULE
*****
 33 35 0 0 0
SMALL
GASTEIGER

@<TRIPOS>ATOM
      1 C         139.9632  140.1127  165.0144 C.ar    1  UNL1        0.0730
      2 C         140.3815  140.2326  166.4499 C.ar    1  UNL1        0.0322
      3 C         139.4906  139.7084  167.5370 C.ar    1  UNL1        0.0653
      4 C         138.1816  139.0643  167.1885 C.ar    1  UNL1        0.1133
      5 N         137.7633  138.9444  165.7530 N.ar    1  UNL1       -0.2367
      6 C         138.6540  139.4685  164.6660 C.ar    1  UNL1        0.1476
      7 C         138.2357  139.3486  163.2305 C.2     1  UNL1        0.2617
      8 N         137.3934  140.4193  162.6028 N.am    1  UNL1       -0.3240
      9 O         138.6597  138.1579  162.4227 O.2     1  UNL1       -0.2687
     10 H         137.1152  141.2008  163.1329 H       1  UNL1        0.1453
     11 H         137.1189  140.3406  161.6606 H       1  UNL1        0.1453
     12 N         140.8539  140.6368  163.9273 N.pl3   1  UNL1       -0.2965
     13 H         141.2548  140.0158  163.2771 H       1  UNL1        0.1537
     14 C         140.3566  144.5107  163.2228 C.ar    1  UNL1        0.1427
     15 C         141.6939  145.0483  163.6381 C.ar    1  UNL1        0.0517
     16 C         142.7513  144.1154  164.1498 C.ar    1  UNL1        0.0638
     17 C         144.0886  144.6531  164.5652 C.3     1  UNL1        0.0522
     18 N         142.4713  142.6450  164.2462 N.ar    1  UNL1       -0.2347
     19 C         141.1340  142.1074  163.8309 C.ar    1  UNL1        0.1348
     20 C         140.0766  143.0402  163.3192 C.ar    1  UNL1        0.0712
     21 C         139.6083  146.3795  161.5804 C.3     1  UNL1        0.2525
     22 O         139.2993  145.4435  162.7111 O.3     1  UNL1       -0.4713
     23 N         139.9089  139.8284  168.9725 N.pl3   1  UNL1       -0.3316
     24 H         139.5210  139.2286  169.6500 H       1  UNL1        0.1468
     25 C         140.9184  140.8621  169.3756 C.3     1  UNL1        0.0833
     26 C         140.4851  142.2763  169.6249 C.3     1  UNL1        0.0208
     27 C         141.4945  143.3101  170.0280 C.3     1  UNL1        0.0018
     28 C         142.9372  142.9295  170.1820 C.3     1  UNL1        0.0015
     29 C         143.3705  141.5152  169.9327 C.3     1  UNL1        0.0172
     30 C         142.3611  140.4815  169.5296 C.3     1  UNL1        0.0689
     31 N         142.7944  139.0672  169.2803 N.3     1  UNL1       -0.3209
     32 H         141.9849  138.5049  169.0176 H       1  UNL1        0.1189
     33 H         143.2128  138.6853  170.1285 H       1  UNL1        0.1189
@<TRIPOS>BOND
     1    21    22    1
     2    22    14    1
     3    14    15   ar
     4    15    16   ar
     5    16    17    1
     6    16    18   ar
     7    18    19   ar
     8    19    12    1
     9    12     1    1
    10     1     2   ar
    11     2     3   ar
    12     3    23    1
    13    25    23    1
    14    25    26    1
    15    26    27    1
    16    27    28    1
    17    28    29    1
    18    29    30    1
    19    30    31    1
    20     3     4   ar
    21     4     5   ar
    22     5     6   ar
    23     6     7    1
    24     7     8   am
    25     7     9    2
    26    19    20   ar
    27    20    14   ar
    28     6     1   ar
    29    30    25    1
    30    12    13    1
    31    23    24    1
    32    31    32    1
    33    31    33    1
    34     8    10    1
    35     8    11    1
@<TRIPOS>MOLECULE
*****
 33 35 0 0 0
SMALL
GASTEIGER

@<TRIPOS>ATOM
      1 C         139.5332  140.8492  165.1778 C.ar    1  UNL1        0.0730
      2 C         140.0730  140.8223  166.5770 C.ar    1  UNL1        0.0322
      3 C         139.4489  139.9251  167.6045 C.ar    1  UNL1        0.0653
      4 C         138.2850  139.0551  167.2328 C.ar    1  UNL1        0.1133
      5 N         137.7452  139.0820  165.8335 N.ar    1  UNL1       -0.2367
      6 C         138.3693  139.9791  164.8060 C.ar    1  UNL1        0.1476
      7 C         137.8295  140.0060  163.4068 C.2     1  UNL1        0.2617
      8 N         136.9184  141.1169  162.9756 N.am    1  UNL1       -0.3240
      9 O         138.2008  138.9221  162.4386 O.2     1  UNL1       -0.2687
     10 H         136.6747  141.8283  163.6111 H       1  UNL1        0.1453
     11 H         136.5641  141.1345  162.0573 H       1  UNL1        0.1453
     12 N         140.1573  141.7463  164.1503 N.pl3   1  UNL1       -0.2965
     13 H         139.5871  142.2893  163.5594 H       1  UNL1        0.1537
     14 C         143.8551  140.9964  162.9199 C.ar    1  UNL1        0.1427
     15 C         144.6362  141.9553  163.7686 C.ar    1  UNL1        0.0517
     16 C         143.9243  142.8446  164.7445 C.ar    1  UNL1        0.0638
     17 C         144.7055  143.8035  165.5933 C.3     1  UNL1        0.0522
     18 N         142.4314  142.7749  164.8718 N.ar    1  UNL1       -0.2347
     19 C         141.6503  141.8160  164.0231 C.ar    1  UNL1        0.1348
     20 C         142.3622  140.9267  163.0471 C.ar    1  UNL1        0.0712
     21 C         143.8936  138.8706  161.4267 C.3     1  UNL1        0.2525
     22 O         144.5670  140.1071  161.9440 O.3     1  UNL1       -0.4713
     23 N         139.9886  139.8982  169.0038 N.pl3   1  UNL1       -0.3316
     24 H         139.6746  139.2152  169.6395 H       1  UNL1        0.1468
     25 C         141.0070  140.9119  169.4344 C.3     1  UNL1        0.0833
     26 C         140.5760  142.3042  169.7887 C.3     1  UNL1        0.0208
     27 C         141.5944  143.3179  170.2193 C.3     1  UNL1        0.0018
     28 C         143.0438  142.9392  170.2958 C.3     1  UNL1        0.0015
     29 C         143.4748  141.5467  169.9415 C.3     1  UNL1        0.0172
     30 C         142.4564  140.5331  169.5109 C.3     1  UNL1        0.0689
     31 N         142.8874  139.1407  169.1566 N.3     1  UNL1       -0.3209
     32 H         142.0717  138.5901  168.8886 H       1  UNL1        0.1189
     33 H         143.3390  138.7091  169.9629 H       1  UNL1        0.1189
@<TRIPOS>BOND
     1    21    22    1
     2    22    14    1
     3    14    15   ar
     4    15    16   ar
     5    16    17    1
     6    16    18   ar
     7    18    19   ar
     8    19    12    1
     9    12     1    1
    10     1     2   ar
    11     2     3   ar
    12     3    23    1
    13    25    23    1
    14    25    26    1
    15    26    27    1
    16    27    28    1
    17    28    29    1
    18    29    30    1
    19    30    31    1
    20     3     4   ar
    21     4     5   ar
    22     5     6   ar
    23     6     7    1
    24     7     8   am
    25     7     9    2
    26    19    20   ar
    27    20    14   ar
    28     6     1   ar
    29    30    25    1
    30    12    13    1
    31    23    24    1
    32    31    32    1
    33    31    33    1
    34     8    10    1
    35     8    11    1
@<TRIPOS>MOLECULE
*****
 33 35 0 0 0
SMALL
GASTEIGER

@<TRIPOS>ATOM
      1 C         142.0259  140.5571  167.2955 C.ar    1  UNL1        0.0730
      2 C         140.8268  140.0628  166.5420 C.ar    1  UNL1        0.0322
      3 C         139.5213  139.8679  167.2545 C.ar    1  UNL1        0.0653
      4 C         139.4149  140.1673  168.7205 C.ar    1  UNL1        0.1133
      5 N         140.6140  140.6616  169.4739 N.ar    1  UNL1       -0.2367
      6 C         141.9195  140.8566  168.7615 C.ar    1  UNL1        0.1476
      7 C         143.1187  141.3509  169.5149 C.2     1  UNL1        0.2617
      8 N         143.6426  140.5723  170.6851 N.am    1  UNL1       -0.3240
      9 O         143.7939  142.6239  169.0982 O.2     1  UNL1       -0.2687
     10 H         143.1994  139.7368  170.9585 H       1  UNL1        0.1453
     11 H         144.4296  140.8967  171.1796 H       1  UNL1        0.1453
     12 N         143.3314  140.7520  166.5830 N.pl3   1  UNL1       -0.2965
     13 H         144.1601  140.3811  166.9637 H       1  UNL1        0.1537
     14 C         143.9719  141.6235  162.7646 C.ar    1  UNL1        0.1427
     15 C         143.4602  143.0323  162.7057 C.ar    1  UNL1        0.0517
     16 C         142.9056  143.6810  163.9392 C.ar    1  UNL1        0.0638
     17 C         142.3940  145.0898  163.8802 C.3     1  UNL1        0.0522
     18 N         142.8627  142.9209  165.2316 N.ar    1  UNL1       -0.2347
     19 C         143.3744  141.5122  165.2905 C.ar    1  UNL1        0.1348
     20 C         143.9289  140.8634  164.0570 C.ar    1  UNL1        0.0712
     21 C         144.0644  139.6047  161.1318 C.3     1  UNL1        0.2525
     22 O         144.5264  140.9748  161.5310 O.3     1  UNL1       -0.4713
     23 N         138.3221  139.3735  166.5011 N.pl3   1  UNL1       -0.3316
     24 H         137.4750  139.2113  166.9757 H       1  UNL1        0.1468
     25 C         138.4137  139.1263  165.0244 C.3     1  UNL1        0.0833
     26 C         138.8853  137.7969  164.5143 C.3     1  UNL1        0.0208
     27 C         138.9769  137.5497  163.0376 C.3     1  UNL1        0.0018
     28 C         138.5969  138.6320  162.0710 C.3     1  UNL1        0.0015
     29 C         138.1253  139.9614  162.5812 C.3     1  UNL1        0.0172
     30 C         138.0338  140.2086  164.0578 C.3     1  UNL1        0.0689
     31 N         137.5621  141.5381  164.5679 N.3     1  UNL1       -0.3209
     32 H         137.5620  141.5303  165.5879 H       1  UNL1        0.1189
     33 H         136.6167  141.7163  164.2291 H       1  UNL1        0.1189
@<TRIPOS>BOND
     1    21    22    1
     2    22    14    1
     3    14    15   ar
     4    15    16   ar
     5    16    17    1
     6    16    18   ar
     7    18    19   ar
     8    19    12    1
     9    12     1    1
    10     1     2   ar
    11     2     3   ar
    12     3    23    1
    13    25    23    1
    14    25    26    1
    15    26    27    1
    16    27    28    1
    17    28    29    1
    18    29    30    1
    19    30    31    1
    20     3     4   ar
    21     4     5   ar
    22     5     6   ar
    23     6     7    1
    24     7     8   am
    25     7     9    2
    26    19    20   ar
    27    20    14   ar
    28     6     1   ar
    29    30    25    1
    30    12    13    1
    31    23    24    1
    32    31    32    1
    33    31    33    1
    34     8    10    1
    35     8    11    1
@<TRIPOS>MOLECULE
*****
 33 35 0 0 0
SMALL
GASTEIGER

@<TRIPOS>ATOM
      1 C         140.5143  139.0700  165.1389 C.ar    1  UNL1        0.0730
      2 C         140.9092  139.6879  166.4475 C.ar    1  UNL1        0.0322
      3 C         142.3046  139.5123  166.9690 C.ar    1  UNL1        0.0653
      4 C         143.3051  138.7188  166.1821 C.ar    1  UNL1        0.1133
      5 N         142.9102  138.1010  164.8735 N.ar    1  UNL1       -0.2367
      6 C         141.5149  138.2766  164.3519 C.ar    1  UNL1        0.1476
      7 C         141.1200  137.6587  163.0434 C.2     1  UNL1        0.2617
      8 N         142.1367  137.4993  161.9521 N.am    1  UNL1       -0.3240
      9 O         139.7084  137.2002  162.8261 O.2     1  UNL1       -0.2687
     10 H         143.0631  137.8002  162.0947 H       1  UNL1        0.1453
     11 H         141.8775  137.0938  161.0933 H       1  UNL1        0.1453
     12 N         139.1189  139.2456  164.6174 N.pl3   1  UNL1       -0.2965
     13 H         138.4527  138.5320  164.7439 H       1  UNL1        0.1537
     14 C         137.9605  142.9864  163.9733 C.ar    1  UNL1        0.1427
     15 C         137.9781  143.0345  162.4742 C.ar    1  UNL1        0.0517
     16 C         138.3759  141.8196  161.6894 C.ar    1  UNL1        0.0638
     17 C         138.3935  141.8677  160.1903 C.3     1  UNL1        0.0522
     18 N         138.7562  140.5567  162.4038 N.ar    1  UNL1       -0.2347
     19 C         138.7386  140.5086  163.9029 C.ar    1  UNL1        0.1348
     20 C         138.3408  141.7235  164.6876 C.ar    1  UNL1        0.0712
     21 C         138.5920  144.9545  165.5474 C.3     1  UNL1        0.2525
     22 O         137.5627  144.2013  164.7580 O.3     1  UNL1       -0.4713
     23 N         142.6995  140.1302  168.2776 N.pl3   1  UNL1       -0.3316
     24 H         143.5797  139.9302  168.6707 H       1  UNL1        0.1468
     25 C         141.7532  141.0528  168.9872 C.3     1  UNL1        0.0833
     26 C         141.6178  142.4779  168.5392 C.3     1  UNL1        0.0208
     27 C         140.6716  143.4005  169.2488 C.3     1  UNL1        0.0018
     28 C         139.8608  142.8980  170.4064 C.3     1  UNL1        0.0015
     29 C         139.9963  141.4728  170.8545 C.3     1  UNL1        0.0172
     30 C         140.9425  140.5503  170.1448 C.3     1  UNL1        0.0689
     31 N         141.0780  139.1251  170.5929 N.3     1  UNL1       -0.3209
     32 H         141.7590  138.6466  170.0032 H       1  UNL1        0.1189
     33 H         140.1746  138.6575  170.5171 H       1  UNL1        0.1189
@<TRIPOS>BOND
     1    21    22    1
     2    22    14    1
     3    14    15   ar
     4    15    16   ar
     5    16    17    1
     6    16    18   ar
     7    18    19   ar
     8    19    12    1
     9    12     1    1
    10     1     2   ar
    11     2     3   ar
    12     3    23    1
    13    25    23    1
    14    25    26    1
    15    26    27    1
    16    27    28    1
    17    28    29    1
    18    29    30    1
    19    30    31    1
    20     3     4   ar
    21     4     5   ar
    22     5     6   ar
    23     6     7    1
    24     7     8   am
    25     7     9    2
    26    19    20   ar
    27    20    14   ar
    28     6     1   ar
    29    30    25    1
    30    12    13    1
    31    23    24    1
    32    31    32    1
    33    31    33    1
    34     8    10    1
    35     8    11    1
@<TRIPOS>MOLECULE
*****
 33 35 0 0 0
SMALL
GASTEIGER

@<TRIPOS>ATOM
      1 C         140.2251  139.4562  165.0991 C.ar    1  UNL1        0.0730
      2 C         140.5816  139.6829  166.5384 C.ar    1  UNL1        0.0322
      3 C         139.5295  139.5578  167.6003 C.ar    1  UNL1        0.0653
      4 C         138.1211  139.2061  167.2229 C.ar    1  UNL1        0.1133
      5 N         137.7646  138.9794  165.7836 N.ar    1  UNL1       -0.2367
      6 C         138.8166  139.1044  164.7217 C.ar    1  UNL1        0.1476
      7 C         138.4601  138.8777  163.2824 C.2     1  UNL1        0.2617
      8 N         137.5482  139.8363  162.5757 N.am    1  UNL1       -0.3240
      9 O         139.0156  137.6924  162.5499 O.2     1  UNL1       -0.2687
     10 H         137.1836  140.6142  163.0565 H       1  UNL1        0.1453
     11 H         137.3142  139.6875  161.6310 H       1  UNL1        0.1453
     12 N         141.2771  139.5812  164.0372 N.pl3   1  UNL1       -0.2965
     13 H         141.3979  138.8612  163.3768 H       1  UNL1        0.1537
     14 C         142.3917  143.3898  163.9834 C.ar    1  UNL1        0.1427
     15 C         143.8806  143.2478  163.8701 C.ar    1  UNL1        0.0517
     16 C         144.5018  141.8836  163.8124 C.ar    1  UNL1        0.0638
     17 C         145.9908  141.7417  163.6991 C.3     1  UNL1        0.0522
     18 N         143.6339  140.6615  163.8682 N.ar    1  UNL1       -0.2347
     19 C         142.1450  140.8034  163.9815 C.ar    1  UNL1        0.1348
     20 C         141.5239  142.1676  164.0391 C.ar    1  UNL1        0.0712
     21 C         140.3628  144.9577  163.5651 C.3     1  UNL1        0.2525
     22 O         141.7706  144.7539  164.0410 O.3     1  UNL1       -0.4713
     23 N         139.8860  139.7845  169.0396 N.pl3   1  UNL1       -0.3316
     24 H         139.4545  139.2488  169.7439 H       1  UNL1        0.1468
     25 C         140.9000  140.8275  169.4058 C.3     1  UNL1        0.0833
     26 C         140.4808  142.2593  169.5611 C.3     1  UNL1        0.0208
     27 C         141.4948  143.3023  169.9273 C.3     1  UNL1        0.0018
     28 C         142.9280  142.9134  170.1382 C.3     1  UNL1        0.0015
     29 C         143.3473  141.4815  169.9829 C.3     1  UNL1        0.0172
     30 C         142.3333  140.4386  169.6167 C.3     1  UNL1        0.0689
     31 N         142.7525  139.0067  169.4614 N.3     1  UNL1       -0.3209
     32 H         141.9417  138.4401  169.2126 H       1  UNL1        0.1189
     33 H         143.1456  138.6703  170.3404 H       1  UNL1        0.1189
@<TRIPOS>BOND
     1    21    22    1
     2    22    14    1
     3    14    15   ar
     4    15    16   ar
     5    16    17    1
     6    16    18   ar
     7    18    19   ar
     8    19    12    1
     9    12     1    1
    10     1     2   ar
    11     2     3   ar
    12     3    23    1
    13    25    23    1
    14    25    26    1
    15    26    27    1
    16    27    28    1
    17    28    29    1
    18    29    30    1
    19    30    31    1
    20     3     4   ar
    21     4     5   ar
    22     5     6   ar
    23     6     7    1
    24     7     8   am
    25     7     9    2
    26    19    20   ar
    27    20    14   ar
    28     6     1   ar
    29    30    25    1
    30    12    13    1
    31    23    24    1
    32    31    32    1
    33    31    33    1
    34     8    10    1
    35     8    11    1
@<TRIPOS>MOLECULE
*****
 33 35 0 0 0
SMALL
GASTEIGER

@<TRIPOS>ATOM
      1 C         137.9738  140.1509  163.6982 C.ar    1  UNL1        0.0730
      2 C         138.0779  140.2243  165.1928 C.ar    1  UNL1        0.0322
      3 C         138.6029  139.0513  165.9665 C.ar    1  UNL1        0.0653
      4 C         139.0237  137.8050  165.2456 C.ar    1  UNL1        0.1133
      5 N         138.9196  137.7317  163.7510 N.ar    1  UNL1       -0.2367
      6 C         138.3947  138.9046  162.9773 C.ar    1  UNL1        0.1476
      7 C         138.2906  138.8312  161.4827 C.2     1  UNL1        0.2617
      8 N         139.3810  138.1784  160.6861 N.am    1  UNL1       -0.3240
      9 O         137.0960  139.4108  160.7848 O.2     1  UNL1       -0.2687
     10 H         140.1651  137.7980  161.1442 H       1  UNL1        0.1453
     11 H         139.3127  138.1303  159.7051 H       1  UNL1        0.1453
     12 N         137.4489  141.3238  162.9245 N.pl3   1  UNL1       -0.2965
     13 H         136.4816  141.4161  162.7664 H       1  UNL1        0.1537
     14 C         140.0959  144.2784  162.8058 C.ar    1  UNL1        0.1427
     15 C         140.2956  144.4208  161.3260 C.ar    1  UNL1        0.0517
     16 C         139.5464  143.5310  160.3790 C.ar    1  UNL1        0.0638
     17 C         139.7461  143.6735  158.8992 C.3     1  UNL1        0.0522
     18 N         138.5975  142.4986  160.9118 N.ar    1  UNL1       -0.2347
     19 C         138.3978  142.3562  162.3916 C.ar    1  UNL1        0.1348
     20 C         139.1470  143.2461  163.3386 C.ar    1  UNL1        0.0712
     21 C         142.3442  145.1309  163.7899 C.3     1  UNL1        0.2525
     22 O         140.8451  145.1683  163.7528 O.3     1  UNL1       -0.4713
     23 N         138.7070  139.1246  167.4611 N.pl3   1  UNL1       -0.3316
     24 H         138.2796  138.4350  168.0187 H       1  UNL1        0.1468
     25 C         139.4623  140.2487  168.1060 C.3     1  UNL1        0.0833
     26 C         140.4874  141.0115  167.3203 C.3     1  UNL1        0.0208
     27 C         141.2428  142.1357  167.9653 C.3     1  UNL1        0.0018
     28 C         140.9729  142.4969  169.3959 C.3     1  UNL1        0.0015
     29 C         139.9478  141.7341  170.1816 C.3     1  UNL1        0.0172
     30 C         139.1925  140.6100  169.5366 C.3     1  UNL1        0.0689
     31 N         138.1674  139.8472  170.3223 N.3     1  UNL1       -0.3209
     32 H         137.7553  139.1245  169.7321 H       1  UNL1        0.1189
     33 H         137.4371  140.4854  170.6382 H       1  UNL1        0.1189
@<TRIPOS>BOND
     1    21    22    1
     2    22    14    1
     3    14    15   ar
     4    15    16   ar
     5    16    17    1
     6    16    18   ar
     7    18    19   ar
     8    19    12    1
     9    12     1    1
    10     1     2   ar
    11     2     3   ar
    12     3    23    1
    13    25    23    1
    14    25    26    1
    15    26    27    1
    16    27    28    1
    17    28    29    1
    18    29    30    1
    19    30    31    1
    20     3     4   ar
    21     4     5   ar
    22     5     6   ar
    23     6     7    1
    24     7     8   am
    25     7     9    2
    26    19    20   ar
    27    20    14   ar
    28     6     1   ar
    29    30    25    1
    30    12    13    1
    31    23    24    1
    32    31    32    1
    33    31    33    1
    34     8    10    1
    35     8    11    1
@<TRIPOS>MOLECULE
*****
 33 35 0 0 0
SMALL
GASTEIGER

@<TRIPOS>ATOM
      1 C         141.7833  139.6069  166.9076 C.ar    1  UNL1        0.0730
      2 C         140.6971  139.6851  165.8761 C.ar    1  UNL1        0.0322
      3 C         139.2654  139.8195  166.3032 C.ar    1  UNL1        0.0653
      4 C         138.9200  139.8756  167.7618 C.ar    1  UNL1        0.1133
      5 N         140.0063  139.7974  168.7933 N.ar    1  UNL1       -0.2367
      6 C         141.4379  139.6631  168.3662 C.ar    1  UNL1        0.1476
      7 C         142.5241  139.5849  169.3977 C.2     1  UNL1        0.2617
      8 N         143.1501  140.8421  169.9244 N.am    1  UNL1       -0.3240
      9 O         142.9842  138.2494  169.9026 O.2     1  UNL1       -0.2687
     10 H         142.8481  141.7186  169.5930 H       1  UNL1        0.1453
     11 H         143.8631  140.7908  170.6014 H       1  UNL1        0.1453
     12 N         143.2149  139.4726  166.4805 N.pl3   1  UNL1       -0.2965
     13 H         143.8970  139.1836  167.1289 H       1  UNL1        0.1537
     14 C         144.5117  141.4483  163.2923 C.ar    1  UNL1        0.1427
     15 C         144.3922  140.3907  162.2354 C.ar    1  UNL1        0.0517
     16 C         143.8802  139.0270  162.5935 C.ar    1  UNL1        0.0638
     17 C         143.7606  137.9694  161.5365 C.3     1  UNL1        0.0522
     18 N         143.4877  138.7210  164.0085 N.ar    1  UNL1       -0.2347
     19 C         143.6073  139.7786  165.0654 C.ar    1  UNL1        0.1348
     20 C         144.1193  141.1423  164.7073 C.ar    1  UNL1        0.0712
     21 C         144.0668  143.8820  162.4990 C.3     1  UNL1        0.2525
     22 O         145.0237  142.8120  162.9342 O.3     1  UNL1       -0.4713
     23 N         138.1792  139.8977  165.2717 N.pl3   1  UNL1       -0.3316
     24 H         137.5121  139.1768  165.2037 H       1  UNL1        0.1468
     25 C         138.1094  141.0742  164.3437 C.3     1  UNL1        0.0833
     26 C         138.3108  142.4620  164.8758 C.3     1  UNL1        0.0208
     27 C         138.2411  143.6385  163.9478 C.3     1  UNL1        0.0018
     28 C         137.9699  143.4271  162.4878 C.3     1  UNL1        0.0015
     29 C         137.7685  142.0391  161.9557 C.3     1  UNL1        0.0172
     30 C         137.8383  140.8627  162.8837 C.3     1  UNL1        0.0689
     31 N         137.6369  139.4747  162.3516 N.3     1  UNL1       -0.3209
     32 H         137.7174  138.8029  163.1149 H       1  UNL1        0.1189
     33 H         138.3461  139.2747  161.6464 H       1  UNL1        0.1189
@<TRIPOS>BOND
     1    21    22    1
     2    22    14    1
     3    14    15   ar
     4    15    16   ar
     5    16    17    1
     6    16    18   ar
     7    18    19   ar
     8    19    12    1
     9    12     1    1
    10     1     2   ar
    11     2     3   ar
    12     3    23    1
    13    25    23    1
    14    25    26    1
    15    26    27    1
    16    27    28    1
    17    28    29    1
    18    29    30    1
    19    30    31    1
    20     3     4   ar
    21     4     5   ar
    22     5     6   ar
    23     6     7    1
    24     7     8   am
    25     7     9    2
    26    19    20   ar
    27    20    14   ar
    28     6     1   ar
    29    30    25    1
    30    12    13    1
    31    23    24    1
    32    31    32    1
    33    31    33    1
    34     8    10    1
    35     8    11    1
