@<TRIPOS>MOLECULE
*****
 32 36 0 0 0
SMALL
GASTEIGER

@<TRIPOS>ATOM
      1 C         139.7667  139.6949  164.9191 C.ar    1  UNL1        0.0505
      2 C         138.5689  138.9888  165.4818 C.ar    1  UNL1        0.0178
      3 C         138.2944  139.0358  166.9557 C.ar    1  UNL1        0.0379
      4 C         139.2177  139.7889  167.8669 C.ar    1  UNL1        0.1364
      5 C         140.4156  140.4951  167.3042 C.ar    1  UNL1        0.0367
      6 C         140.6901  140.4481  165.8303 C.ar    1  UNL1        0.0153
      7 C         141.3389  141.2482  168.2154 C.3     1  UNL1        0.1537
      8 C         142.3460  142.0370  168.9987 C.3     1  UNL1        0.2350
      9 O         143.3694  142.5658  168.0380 O.2     1  UNL1       -0.4478
     10 C         142.9948  142.1038  166.6609 C.2     1  UNL1        0.2770
     11 N         143.7436  142.4036  165.3962 N.pl3   1  UNL1       -0.3133
     12 N         141.7399  141.2895  166.7706 N.2     1  UNL1       -0.2204
     13 C         141.0644  141.2952  169.6893 C.3     1  UNL1        0.0666
     14 C         141.4390  141.7571  171.0663 C.3     1  UNL1        0.0061
     15 C         142.2890  142.1377  169.8905 C.3     1  UNL1        0.0061
     16 C         139.8666  140.5891  170.2521 C.3     1  UNL1        0.2074
     17 O         138.9433  139.8359  169.3408 O.3     1  UNL1       -0.4756
     18 H         144.5618  142.9503  165.4264 H       1  UNL1        0.1466
     19 H         143.4169  142.0536  164.5360 H       1  UNL1        0.1466
     20 C         140.5687  138.3906  162.8202 C.2     1  UNL1        0.2681
     21 O         140.8218  137.1801  163.6692 O.2     1  UNL1       -0.2681
     22 N         140.0412  139.6480  163.4451 N.am    1  UNL1       -0.2791
     23 H         139.8750  140.4424  162.8879 H       1  UNL1        0.1552
     24 C         141.3921  138.2496  158.3984 C.ar    1  UNL1        0.0884
     25 C         139.9916  138.4566  158.8943 C.ar    1  UNL1        0.1093
     26 N         139.7171  138.5036  160.3682 N.ar    1  UNL1       -0.2377
     27 C         140.8432  138.3436  161.3463 C.ar    1  UNL1        0.1453
     28 C         142.2436  138.1365  160.8504 C.ar    1  UNL1        0.0804
     29 CL        143.3696  137.9765  161.8284 Cl      1  UNL1       -0.0805
     30 C         142.5180  138.0895  159.3765 C.ar    1  UNL1        0.0249
     31 N         141.9411  138.1556  155.4506 N.1     1  UNL1       -0.1908
     32 C         141.6666  138.2026  156.9245 C.1     1  UNL1        0.1020
@<TRIPOS>BOND
     1    31    32    3
     2    32    24    1
     3    24    25   ar
     4    25    26   ar
     5    26    27   ar
     6    27    20    1
     7    20    21    2
     8    20    22   am
     9    22     1    1
    10     1     2   ar
    11     2     3   ar
    12     3     4   ar
    13     4     5   ar
    14     5     6   ar
    15     5     7    1
    16     7     8    1
    17     8     9    1
    18     9    10    1
    19    10    11    1
    20    10    12    2
    21     7    13    1
    22    13    14    1
    23    14    15    1
    24    13    16    1
    25    16    17    1
    26    27    28   ar
    27    28    29    1
    28    28    30   ar
    29    30    24   ar
    30     6     1   ar
    31    12     7    1
    32    15    13    1
    33    17     4    1
    34    22    23    1
    35    11    18    1
    36    11    19    1
@<TRIPOS>MOLECULE
*****
 32 36 0 0 0
SMALL
GASTEIGER

@<TRIPOS>ATOM
      1 C         139.2582  140.1004  165.1502 C.ar    1  UNL1        0.0505
      2 C         138.1981  139.3238  165.8734 C.ar    1  UNL1        0.0178
      3 C         138.2364  139.2158  167.3690 C.ar    1  UNL1        0.0379
      4 C         139.3347  139.8844  168.1414 C.ar    1  UNL1        0.1364
      5 C         140.3949  140.6610  167.4182 C.ar    1  UNL1        0.0367
      6 C         140.3566  140.7690  165.9226 C.ar    1  UNL1        0.0153
      7 C         141.4932  141.3296  168.1906 C.3     1  UNL1        0.1537
      8 C         142.6472  142.0479  168.8249 C.3     1  UNL1        0.2350
      9 O         143.4526  142.6864  167.7325 O.2     1  UNL1       -0.4478
     10 C         142.7964  142.3628  166.4230 C.2     1  UNL1        0.2770
     11 N         143.2684  142.8008  165.0682 N.pl3   1  UNL1       -0.3133
     12 N         141.5854  141.5242  166.7062 N.2     1  UNL1       -0.2204
     13 C         141.5314  141.2215  169.6863 C.3     1  UNL1        0.0666
     14 C         142.1876  141.5452  170.9957 C.3     1  UNL1        0.0061
     15 C         142.7776  142.0559  169.7147 C.3     1  UNL1        0.0061
     16 C         140.4713  140.4450  170.4095 C.3     1  UNL1        0.2074
     17 O         139.3729  139.7764  169.6371 O.3     1  UNL1       -0.4756
     18 H         144.0792  143.3529  164.9842 H       1  UNL1        0.1466
     19 H         142.7673  142.5363  164.2631 H       1  UNL1        0.1466
     20 C         138.3108  141.2042  162.9975 C.2     1  UNL1        0.2681
     21 O         137.4398  142.0920  163.8361 O.2     1  UNL1       -0.2681
     22 N         139.2200  140.2084  163.6546 N.am    1  UNL1       -0.2791
     23 H         139.7917  139.6257  163.1042 H       1  UNL1        0.1552
     24 C         138.1962  141.5282  158.5107 C.ar    1  UNL1        0.0884
     25 C         138.6527  142.6950  159.3355 C.ar    1  UNL1        0.1093
     26 N         138.6909  142.5870  160.8311 N.ar    1  UNL1       -0.2377
     27 C         138.2726  141.3122  161.5019 C.ar    1  UNL1        0.1453
     28 C         137.8161  140.1455  160.6771 C.ar    1  UNL1        0.0804
     29 CL        137.3978  138.8707  161.3480 Cl      1  UNL1       -0.0805
     30 C         137.7779  140.2535  159.1815 C.ar    1  UNL1        0.0249
     31 N         138.1197  141.7442  155.5194 N.1     1  UNL1       -0.1908
     32 C         138.1579  141.6362  157.0151 C.1     1  UNL1        0.1020
@<TRIPOS>BOND
     1    31    32    3
     2    32    24    1
     3    24    25   ar
     4    25    26   ar
     5    26    27   ar
     6    27    20    1
     7    20    21    2
     8    20    22   am
     9    22     1    1
    10     1     2   ar
    11     2     3   ar
    12     3     4   ar
    13     4     5   ar
    14     5     6   ar
    15     5     7    1
    16     7     8    1
    17     8     9    1
    18     9    10    1
    19    10    11    1
    20    10    12    2
    21     7    13    1
    22    13    14    1
    23    14    15    1
    24    13    16    1
    25    16    17    1
    26    27    28   ar
    27    28    29    1
    28    28    30   ar
    29    30    24   ar
    30     6     1   ar
    31    12     7    1
    32    15    13    1
    33    17     4    1
    34    22    23    1
    35    11    18    1
    36    11    19    1
@<TRIPOS>MOLECULE
*****
 32 36 0 0 0
SMALL
GASTEIGER

@<TRIPOS>ATOM
      1 C         138.4883  141.5024  162.3687 C.ar    1  UNL1        0.0505
      2 C         137.8394  140.2560  161.8439 C.ar    1  UNL1        0.0178
      3 C         137.6978  140.0499  160.3648 C.ar    1  UNL1        0.0379
      4 C         138.2051  141.0902  159.4107 C.ar    1  UNL1        0.1364
      5 C         138.8540  142.3366  159.9355 C.ar    1  UNL1        0.0367
      6 C         138.9957  142.5427  161.4145 C.ar    1  UNL1        0.0153
      7 C         139.3614  143.3768  158.9813 C.3     1  UNL1        0.1537
      8 C         139.9136  144.4990  158.1533 C.3     1  UNL1        0.2350
      9 O         140.4656  145.5356  159.0865 O.2     1  UNL1       -0.4478
     10 C         140.2544  145.0540  160.4914 C.2     1  UNL1        0.2770
     11 N         140.6553  145.7792  161.7417 N.pl3   1  UNL1       -0.3133
     12 N         139.5720  143.7198  160.4263 N.2     1  UNL1       -0.2204
     13 C         139.2197  143.1707  157.5023 C.3     1  UNL1        0.0666
     14 C         139.4309  143.6523  156.0975 C.3     1  UNL1        0.0061
     15 C         139.8873  144.4909  157.2544 C.3     1  UNL1        0.0061
     16 C         138.5708  141.9244  156.9775 C.3     1  UNL1        0.2074
     17 O         138.0635  140.8841  157.9317 O.3     1  UNL1       -0.4756
     18 H         141.1008  146.6551  161.6813 H       1  UNL1        0.1466
     19 H         140.4730  145.3794  162.6226 H       1  UNL1        0.1466
     20 C         139.7753  141.0817  164.5860 C.2     1  UNL1        0.2681
     21 O         140.7792  140.2488  163.8453 O.2     1  UNL1       -0.2681
     22 N         138.6299  141.7085  163.8477 N.am    1  UNL1       -0.2791
     23 H         137.9711  142.2551  164.3338 H       1  UNL1        0.1552
     24 C         140.2002  141.7000  169.0230 C.ar    1  UNL1        0.0884
     25 C         140.6806  142.7537  168.0695 C.ar    1  UNL1        0.1093
     26 N         140.5390  142.5476  166.5905 N.ar    1  UNL1       -0.2377
     27 C         139.9169  141.2878  166.0650 C.ar    1  UNL1        0.1453
     28 C         139.4365  140.2343  167.0185 C.ar    1  UNL1        0.0804
     29 CL        138.8145  138.9745  166.4929 Cl      1  UNL1       -0.0805
     30 C         139.5782  140.4404  168.4975 C.ar    1  UNL1        0.0249
     31 N         140.4834  142.1122  171.9810 N.1     1  UNL1       -0.1908
     32 C         140.3418  141.9061  170.5020 C.1     1  UNL1        0.1020
@<TRIPOS>BOND
     1    31    32    3
     2    32    24    1
     3    24    25   ar
     4    25    26   ar
     5    26    27   ar
     6    27    20    1
     7    20    21    2
     8    20    22   am
     9    22     1    1
    10     1     2   ar
    11     2     3   ar
    12     3     4   ar
    13     4     5   ar
    14     5     6   ar
    15     5     7    1
    16     7     8    1
    17     8     9    1
    18     9    10    1
    19    10    11    1
    20    10    12    2
    21     7    13    1
    22    13    14    1
    23    14    15    1
    24    13    16    1
    25    16    17    1
    26    27    28   ar
    27    28    29    1
    28    28    30   ar
    29    30    24   ar
    30     6     1   ar
    31    12     7    1
    32    15    13    1
    33    17     4    1
    34    22    23    1
    35    11    18    1
    36    11    19    1
@<TRIPOS>MOLECULE
*****
 32 36 0 0 0
SMALL
GASTEIGER

@<TRIPOS>ATOM
      1 C         141.9281  141.4003  164.7130 C.ar    1  UNL1        0.0505
      2 C         143.1695  142.2357  164.8184 C.ar    1  UNL1        0.0178
      3 C         143.6802  142.6535  166.1655 C.ar    1  UNL1        0.0379
      4 C         142.9497  142.2358  167.4071 C.ar    1  UNL1        0.1364
      5 C         141.7083  141.4003  167.3018 C.ar    1  UNL1        0.0367
      6 C         141.1975  140.9826  165.9547 C.ar    1  UNL1        0.0153
      7 C         140.9777  140.9827  168.5435 C.3     1  UNL1        0.1537
      8 C         140.1454  140.4917  169.6907 C.3     1  UNL1        0.2350
      9 O         139.0041  139.6971  169.1286 O.2     1  UNL1       -0.4478
     10 C         139.1310  139.6970  167.6340 C.2     1  UNL1        0.2770
     11 N         138.2013  139.0211  166.6702 N.pl3   1  UNL1       -0.3133
     12 N         140.3508  140.4916  167.2723 N.2     1  UNL1       -0.2204
     13 C         141.4885  141.4005  169.8905 C.3     1  UNL1        0.0666
     14 C         141.3616  141.4005  171.3851 C.3     1  UNL1        0.0061
     15 C         140.3500  140.6770  170.5466 C.3     1  UNL1        0.0061
     16 C         142.7298  142.2359  169.9959 C.3     1  UNL1        0.2074
     17 O         143.4604  142.6536  168.7542 O.3     1  UNL1       -0.4756
     18 H         137.4231  138.5202  167.0060 H       1  UNL1        0.1466
     19 H         138.3693  139.0784  165.7018 H       1  UNL1        0.1466
     20 C         141.7411  139.6192  162.8309 C.2     1  UNL1        0.2681
     21 O         142.5757  138.6735  163.6429 O.2     1  UNL1       -0.2681
     22 N         141.4174  140.9825  163.3659 N.am    1  UNL1       -0.2791
     23 H         140.8697  141.6032  162.8330 H       1  UNL1        0.1552
     24 C         140.2088  138.3659  158.7897 C.ar    1  UNL1        0.0884
     25 C         141.6163  138.8635  158.9368 C.ar    1  UNL1        0.1093
     26 N         142.1270  139.2812  160.2839 N.ar    1  UNL1       -0.2377
     27 C         141.2304  139.2014  161.4838 C.ar    1  UNL1        0.1453
     28 C         139.8230  138.7038  161.3366 C.ar    1  UNL1        0.0804
     29 CL        138.9263  138.6240  162.5365 Cl      1  UNL1       -0.0805
     30 C         139.3122  138.2860  159.9895 C.ar    1  UNL1        0.0249
     31 N         139.1873  137.5303  156.0955 N.1     1  UNL1       -0.1908
     32 C         139.6981  137.9481  157.4426 C.1     1  UNL1        0.1020
@<TRIPOS>BOND
     1    31    32    3
     2    32    24    1
     3    24    25   ar
     4    25    26   ar
     5    26    27   ar
     6    27    20    1
     7    20    21    2
     8    20    22   am
     9    22     1    1
    10     1     2   ar
    11     2     3   ar
    12     3     4   ar
    13     4     5   ar
    14     5     6   ar
    15     5     7    1
    16     7     8    1
    17     8     9    1
    18     9    10    1
    19    10    11    1
    20    10    12    2
    21     7    13    1
    22    13    14    1
    23    14    15    1
    24    13    16    1
    25    16    17    1
    26    27    28   ar
    27    28    29    1
    28    28    30   ar
    29    30    24   ar
    30     6     1   ar
    31    12     7    1
    32    15    13    1
    33    17     4    1
    34    22    23    1
    35    11    18    1
    36    11    19    1
@<TRIPOS>MOLECULE
*****
 32 36 0 0 0
SMALL
GASTEIGER

@<TRIPOS>ATOM
      1 C         141.7875  141.5969  164.5197 C.ar    1  UNL1        0.0505
      2 C         143.0365  142.4249  164.5863 C.ar    1  UNL1        0.0178
      3 C         143.6427  142.7621  165.9163 C.ar    1  UNL1        0.0379
      4 C         142.9999  142.2715  167.1796 C.ar    1  UNL1        0.1364
      5 C         141.7508  141.4435  167.1130 C.ar    1  UNL1        0.0367
      6 C         141.1446  141.1062  165.7831 C.ar    1  UNL1        0.0153
      7 C         141.1080  140.9528  168.3763 C.3     1  UNL1        0.1537
      8 C         140.3568  140.3945  169.5484 C.3     1  UNL1        0.2350
      9 O         139.1754  139.6344  169.0224 O.2     1  UNL1       -0.4478
     10 C         139.1966  139.7230  167.5251 C.2     1  UNL1        0.2770
     11 N         138.1985  139.1052  166.5912 N.pl3   1  UNL1       -0.3133
     12 N         140.3910  140.5378  167.1259 N.2     1  UNL1       -0.2204
     13 C         141.7142  141.2901  169.7063 C.3     1  UNL1        0.0666
     14 C         141.6931  141.2015  171.2035 C.3     1  UNL1        0.0061
     15 C         140.6220  140.5288  170.3972 C.3     1  UNL1        0.0061
     16 C         142.9632  142.1180  169.7729 C.3     1  UNL1        0.2074
     17 O         143.6061  142.6088  168.5095 O.3     1  UNL1       -0.4756
     18 H         137.4440  138.5851  166.9510 H       1  UNL1        0.1466
     19 H         138.2980  139.2198  165.6185 H       1  UNL1        0.1466
     20 C         139.9826  142.0157  162.6985 C.2     1  UNL1        0.2681
     21 O         139.3900  143.1092  163.5371 O.2     1  UNL1       -0.2681
     22 N         141.1813  141.2596  163.1897 N.am    1  UNL1       -0.2791
     23 H         141.5702  140.5420  162.6393 H       1  UNL1        0.1552
     24 C         138.1640  141.0039  158.7086 C.ar    1  UNL1        0.0884
     25 C         139.1482  142.1304  158.8202 C.ar    1  UNL1        0.1093
     26 N         139.7544  142.4676  160.1502 N.ar    1  UNL1       -0.2377
     27 C         139.3764  141.6784  161.3685 C.ar    1  UNL1        0.1453
     28 C         138.3922  140.5520  161.2569 C.ar    1  UNL1        0.0804
     29 CL        138.0141  139.7628  162.4752 Cl      1  UNL1       -0.0805
     30 C         137.7860  140.2148  159.9269 C.ar    1  UNL1        0.0249
     31 N         136.9516  140.3293  156.0487 N.1     1  UNL1       -0.1908
     32 C         137.5578  140.6666  157.3787 C.1     1  UNL1        0.1020
@<TRIPOS>BOND
     1    31    32    3
     2    32    24    1
     3    24    25   ar
     4    25    26   ar
     5    26    27   ar
     6    27    20    1
     7    20    21    2
     8    20    22   am
     9    22     1    1
    10     1     2   ar
    11     2     3   ar
    12     3     4   ar
    13     4     5   ar
    14     5     6   ar
    15     5     7    1
    16     7     8    1
    17     8     9    1
    18     9    10    1
    19    10    11    1
    20    10    12    2
    21     7    13    1
    22    13    14    1
    23    14    15    1
    24    13    16    1
    25    16    17    1
    26    27    28   ar
    27    28    29    1
    28    28    30   ar
    29    30    24   ar
    30     6     1   ar
    31    12     7    1
    32    15    13    1
    33    17     4    1
    34    22    23    1
    35    11    18    1
    36    11    19    1
@<TRIPOS>MOLECULE
*****
 32 36 0 0 0
SMALL
GASTEIGER

@<TRIPOS>ATOM
      1 C         143.3136  140.4166  162.8191 C.ar    1  UNL1        0.0505
      2 C         143.7596  139.0417  162.4184 C.ar    1  UNL1        0.0178
      3 C         144.0123  138.7264  160.9739 C.ar    1  UNL1        0.0379
      4 C         143.8190  139.7860  159.9300 C.ar    1  UNL1        0.1364
      5 C         143.3730  141.1610  160.3306 C.ar    1  UNL1        0.0367
      6 C         143.1203  141.4763  161.7751 C.ar    1  UNL1        0.0153
      7 C         143.1797  142.2206  159.2867 C.3     1  UNL1        0.1537
      8 C         142.9453  143.3765  158.3599 C.3     1  UNL1        0.2350
      9 O         142.5105  144.5514  159.1849 O.2     1  UNL1       -0.4478
     10 C         142.4762  144.1216  160.6216 C.2     1  UNL1        0.2770
     11 N         142.0952  144.9814  161.7902 N.pl3   1  UNL1       -0.3133
     12 N         142.8898  142.6812  160.6845 N.2     1  UNL1       -0.2204
     13 C         143.4324  141.9053  157.8422 C.3     1  UNL1        0.0666
     14 C         143.4667  142.3351  156.4055 C.3     1  UNL1        0.0061
     15 C         143.0633  143.3110  157.4708 C.3     1  UNL1        0.0061
     16 C         143.8784  140.5304  157.4415 C.3     1  UNL1        0.2074
     17 O         144.0717  139.4707  158.4854 O.3     1  UNL1       -0.4756
     18 H         141.8369  145.9205  161.6469 H       1  UNL1        0.1466
     19 H         142.1034  144.6065  162.7005 H       1  UNL1        0.1466
     20 C         141.6723  140.6300  164.8217 C.2     1  UNL1        0.2681
     21 O         140.5364  140.2127  163.9353 O.2     1  UNL1       -0.2681
     22 N         143.0609  140.7319  164.2636 N.am    1  UNL1       -0.2791
     23 H         143.8064  141.0058  164.8454 H       1  UNL1        0.1552
     24 C         140.9142  141.5759  169.1554 C.ar    1  UNL1        0.0884
     25 C         141.4532  140.2318  168.7643 C.ar    1  UNL1        0.1093
     26 N         141.7060  139.9165  167.3197 N.ar    1  UNL1       -0.2377
     27 C         141.4196  140.9453  166.2663 C.ar    1  UNL1        0.1453
     28 C         140.8806  142.2893  166.6574 C.ar    1  UNL1        0.0804
     29 CL        140.5942  143.3181  165.6040 Cl      1  UNL1       -0.0805
     30 C         140.6279  142.6046  168.1020 C.ar    1  UNL1        0.0249
     31 N         140.4087  142.2065  172.0445 N.1     1  UNL1       -0.1908
     32 C         140.6615  141.8912  170.5999 C.1     1  UNL1        0.1020
@<TRIPOS>BOND
     1    31    32    3
     2    32    24    1
     3    24    25   ar
     4    25    26   ar
     5    26    27   ar
     6    27    20    1
     7    20    21    2
     8    20    22   am
     9    22     1    1
    10     1     2   ar
    11     2     3   ar
    12     3     4   ar
    13     4     5   ar
    14     5     6   ar
    15     5     7    1
    16     7     8    1
    17     8     9    1
    18     9    10    1
    19    10    11    1
    20    10    12    2
    21     7    13    1
    22    13    14    1
    23    14    15    1
    24    13    16    1
    25    16    17    1
    26    27    28   ar
    27    28    29    1
    28    28    30   ar
    29    30    24   ar
    30     6     1   ar
    31    12     7    1
    32    15    13    1
    33    17     4    1
    34    22    23    1
    35    11    18    1
    36    11    19    1
@<TRIPOS>MOLECULE
*****
 32 36 0 0 0
SMALL
GASTEIGER

@<TRIPOS>ATOM
      1 C         139.7000  140.7802  164.6490 C.ar    1  UNL1        0.0505
      2 C         138.5408  139.9463  165.1083 C.ar    1  UNL1        0.0178
      3 C         138.4200  139.5608  166.5529 C.ar    1  UNL1        0.0379
      4 C         139.4584  140.0091  167.5382 C.ar    1  UNL1        0.1364
      5 C         140.6176  140.8431  167.0789 C.ar    1  UNL1        0.0367
      6 C         140.7384  141.2286  165.6343 C.ar    1  UNL1        0.0153
      7 C         141.6560  141.2914  168.0641 C.3     1  UNL1        0.1537
      8 C         142.7659  141.8109  168.9291 C.3     1  UNL1        0.2350
      9 O         143.7046  142.5928  168.0588 O.2     1  UNL1       -0.4478
     10 C         143.1748  142.5565  166.6559 C.2     1  UNL1        0.2770
     11 N         143.8012  143.2098  165.4597 N.pl3   1  UNL1       -0.3133
     12 N         141.9087  141.7522  166.6592 N.2     1  UNL1       -0.2204
     13 C         141.5352  140.9059  169.5087 C.3     1  UNL1        0.0666
     14 C         142.0649  140.9421  170.9115 C.3     1  UNL1        0.0061
     15 C         142.8039  141.6462  169.8124 C.3     1  UNL1        0.0061
     16 C         140.3760  140.0720  169.9680 C.3     1  UNL1        0.2074
     17 O         139.3376  139.6236  168.9827 O.3     1  UNL1       -0.4756
     18 H         144.6377  143.7195  165.5588 H       1  UNL1        0.1466
     19 H         143.3759  143.1289  164.5755 H       1  UNL1        0.1466
     20 C         139.0674  142.3517  162.6792 C.2     1  UNL1        0.2681
     21 O         138.1933  143.1522  163.5985 O.2     1  UNL1       -0.2681
     22 N         139.8208  141.1658  163.2045 N.am    1  UNL1       -0.2791
     23 H         140.3945  140.6404  162.6011 H       1  UNL1        0.1552
     24 C         139.4298  143.5083  158.3455 C.ar    1  UNL1        0.0884
     25 C         138.4970  142.4062  158.7521 C.ar    1  UNL1        0.1093
     26 N         138.3762  142.0207  160.1967 N.ar    1  UNL1       -0.2377
     27 C         139.1882  142.7373  161.2346 C.ar    1  UNL1        0.1453
     28 C         140.1210  143.8393  160.8280 C.ar    1  UNL1        0.0804
     29 CL        140.9330  144.5559  161.8659 Cl      1  UNL1       -0.0805
     30 C         140.2417  144.2249  159.3834 C.ar    1  UNL1        0.0249
     31 N         139.6714  144.2794  155.4564 N.1     1  UNL1       -0.1908
     32 C         139.5506  143.8939  156.9009 C.1     1  UNL1        0.1020
@<TRIPOS>BOND
     1    31    32    3
     2    32    24    1
     3    24    25   ar
     4    25    26   ar
     5    26    27   ar
     6    27    20    1
     7    20    21    2
     8    20    22   am
     9    22     1    1
    10     1     2   ar
    11     2     3   ar
    12     3     4   ar
    13     4     5   ar
    14     5     6   ar
    15     5     7    1
    16     7     8    1
    17     8     9    1
    18     9    10    1
    19    10    11    1
    20    10    12    2
    21     7    13    1
    22    13    14    1
    23    14    15    1
    24    13    16    1
    25    16    17    1
    26    27    28   ar
    27    28    29    1
    28    28    30   ar
    29    30    24   ar
    30     6     1   ar
    31    12     7    1
    32    15    13    1
    33    17     4    1
    34    22    23    1
    35    11    18    1
    36    11    19    1
@<TRIPOS>MOLECULE
*****
 32 36 0 0 0
SMALL
GASTEIGER

@<TRIPOS>ATOM
      1 C         139.8442  145.5260  156.8696 C.ar    1  UNL1        0.0505
      2 C         140.5332  144.7933  155.7569 C.ar    1  UNL1        0.0178
      3 C         140.8060  145.4893  154.4565 C.ar    1  UNL1        0.0379
      4 C         140.3897  146.9181  154.2688 C.ar    1  UNL1        0.1364
      5 C         139.7005  147.6509  155.3815 C.ar    1  UNL1        0.0367
      6 C         139.4278  146.9548  156.6820 C.ar    1  UNL1        0.0153
      7 C         139.2842  149.0796  155.1938 C.3     1  UNL1        0.1537
      8 C         138.8121  150.5028  155.1528 C.3     1  UNL1        0.2350
      9 O         138.1824  150.8206  156.4766 O.2     1  UNL1       -0.4478
     10 C         138.2653  149.5938  157.3358 C.2     1  UNL1        0.2770
     11 N         137.7565  149.4656  158.7410 N.pl3   1  UNL1       -0.3133
     12 N         138.9463  148.5179  156.5430 N.2     1  UNL1       -0.2204
     13 C         139.5570  149.7757  153.8934 C.3     1  UNL1        0.0666
     14 C         139.4741  151.0024  153.0342 C.3     1  UNL1        0.0061
     15 C         138.9188  151.0236  154.4275 C.3     1  UNL1        0.0061
     16 C         140.2460  149.0429  152.7806 C.3     1  UNL1        0.2074
     17 O         140.6624  147.6141  152.9683 O.3     1  UNL1       -0.4756
     18 H         137.3212  150.2324  159.1789 H       1  UNL1        0.1466
     19 H         137.8579  148.6145  159.2255 H       1  UNL1        0.1466
     20 C         140.5938  144.8627  159.2671 C.2     1  UNL1        0.2681
     21 O         141.8890  145.5916  159.0638 O.2     1  UNL1       -0.2681
     22 N         139.5714  144.8300  158.1701 N.am    1  UNL1       -0.2791
     23 H         138.7213  144.3516  158.3036 H       1  UNL1        0.1552
     24 C         139.7756  142.7747  163.1685 C.ar    1  UNL1        0.0884
     25 C         140.2558  141.9896  161.9839 C.ar    1  UNL1        0.1093
     26 N         140.5286  142.6856  160.6835 N.ar    1  UNL1       -0.2377
     27 C         140.3211  144.1667  160.5676 C.ar    1  UNL1        0.1453
     28 C         139.8408  144.9517  161.7521 C.ar    1  UNL1        0.0804
     29 CL        139.6333  146.4328  161.6362 Cl      1  UNL1       -0.0805
     30 C         139.5681  144.2557  163.0525 C.ar    1  UNL1        0.0249
     31 N         139.2301  141.3826  165.7694 N.1     1  UNL1       -0.1908
     32 C         139.5028  142.0786  164.4689 C.1     1  UNL1        0.1020
@<TRIPOS>BOND
     1    31    32    3
     2    32    24    1
     3    24    25   ar
     4    25    26   ar
     5    26    27   ar
     6    27    20    1
     7    20    21    2
     8    20    22   am
     9    22     1    1
    10     1     2   ar
    11     2     3   ar
    12     3     4   ar
    13     4     5   ar
    14     5     6   ar
    15     5     7    1
    16     7     8    1
    17     8     9    1
    18     9    10    1
    19    10    11    1
    20    10    12    2
    21     7    13    1
    22    13    14    1
    23    14    15    1
    24    13    16    1
    25    16    17    1
    26    27    28   ar
    27    28    29    1
    28    28    30   ar
    29    30    24   ar
    30     6     1   ar
    31    12     7    1
    32    15    13    1
    33    17     4    1
    34    22    23    1
    35    11    18    1
    36    11    19    1
@<TRIPOS>MOLECULE
*****
 32 36 0 0 0
SMALL
GASTEIGER

@<TRIPOS>ATOM
      1 C         140.6555  142.9396  164.0218 C.ar    1  UNL1        0.0505
      2 C         139.8108  143.8473  164.8659 C.ar    1  UNL1        0.0178
      3 C         139.7113  143.6187  166.3451 C.ar    1  UNL1        0.0379
      4 C         140.4564  142.4822  166.9801 C.ar    1  UNL1        0.1364
      5 C         141.3011  141.5744  166.1360 C.ar    1  UNL1        0.0367
      6 C         141.4006  141.8031  164.6568 C.ar    1  UNL1        0.0153
      7 C         142.0462  140.4380  166.7710 C.3     1  UNL1        0.1537
      8 C         142.8442  139.2668  167.2623 C.3     1  UNL1        0.2350
      9 O         143.5324  138.6470  166.0824 O.2     1  UNL1       -0.4478
     10 C         143.1596  139.4352  164.8617 C.2     1  UNL1        0.2770
     11 N         143.6239  139.1640  163.4614 N.pl3   1  UNL1       -0.3133
     12 N         142.2411  140.5421  165.2873 N.2     1  UNL1       -0.2204
     13 C         141.9467  140.2093  168.2501 C.3     1  UNL1        0.0666
     14 C         142.3194  139.4211  169.4707 C.3     1  UNL1        0.0061
     15 C         142.8645  139.0291  168.1294 C.3     1  UNL1        0.0061
     16 C         141.1020  141.1170  169.0942 C.3     1  UNL1        0.2074
     17 O         140.3569  142.2535  168.4592 O.3     1  UNL1       -0.4756
     18 H         144.2298  138.4094  163.2811 H       1  UNL1        0.1466
     19 H         143.3226  139.7408  162.7226 H       1  UNL1        0.1466
     20 C         141.8336  144.0530  161.9915 C.2     1  UNL1        0.2681
     21 O         142.8127  144.7091  162.9194 O.2     1  UNL1       -0.2681
     22 N         140.7550  143.1683  162.5427 N.am    1  UNL1       -0.2791
     23 H         140.1124  142.7377  161.9337 H       1  UNL1        0.1552
     24 C         142.1321  144.7391  157.5541 C.ar    1  UNL1        0.0884
     25 C         143.0507  143.7614  158.2254 C.ar    1  UNL1        0.1093
     26 N         142.9512  143.5327  159.7045 N.ar    1  UNL1       -0.2377
     27 C         141.9331  144.2817  160.5124 C.ar    1  UNL1        0.1453
     28 C         141.0146  145.2593  159.8411 C.ar    1  UNL1        0.0804
     29 CL        139.9965  146.0083  160.6490 Cl      1  UNL1       -0.0805
     30 C         141.1141  145.4880  158.3620 C.ar    1  UNL1        0.0249
     31 N         142.3312  145.1964  154.5959 N.1     1  UNL1       -0.1908
     32 C         142.2317  144.9678  156.0750 C.1     1  UNL1        0.1020
@<TRIPOS>BOND
     1    31    32    3
     2    32    24    1
     3    24    25   ar
     4    25    26   ar
     5    26    27   ar
     6    27    20    1
     7    20    21    2
     8    20    22   am
     9    22     1    1
    10     1     2   ar
    11     2     3   ar
    12     3     4   ar
    13     4     5   ar
    14     5     6   ar
    15     5     7    1
    16     7     8    1
    17     8     9    1
    18     9    10    1
    19    10    11    1
    20    10    12    2
    21     7    13    1
    22    13    14    1
    23    14    15    1
    24    13    16    1
    25    16    17    1
    26    27    28   ar
    27    28    29    1
    28    28    30   ar
    29    30    24   ar
    30     6     1   ar
    31    12     7    1
    32    15    13    1
    33    17     4    1
    34    22    23    1
    35    11    18    1
    36    11    19    1
