@<TRIPOS>MOLECULE
*****
 38 42 0 0 0
SMALL
GASTEIGER

@<TRIPOS>ATOM
      1 C         138.7897  138.5435  165.1252 C.ar    1  UNL1        0.2221
      2 N         137.7432  138.2651  166.1632 N.ar    1  UNL1       -0.2119
      3 C         137.8788  138.8459  167.5396 C.ar    1  UNL1        0.1050
      4 C         139.0609  139.7050  167.8779 C.ar    1  UNL1        0.0596
      5 C         140.1074  139.9834  166.8400 C.ar    1  UNL1        0.1683
      6 N         139.9718  139.4026  165.4637 N.ar    1  UNL1       -0.1944
      7 N         141.2894  140.8426  167.1783 N.ar    1  UNL1       -0.2096
      8 C         142.1149  141.6298  166.2042 C.ar    1  UNL1        0.1175
      9 C         143.1892  142.3391  166.9740 C.ar    1  UNL1        0.0796
     10 C         143.0278  141.9902  168.4240 C.ar    1  UNL1        0.0939
     11 C         143.8892  142.4802  169.5500 C.3     1  UNL1        0.0553
     12 N         141.8536  141.0653  168.5502 N.ar    1  UNL1       -0.1668
     13 N         144.2405  143.2393  166.3956 N.pl3   1  UNL1       -0.3285
     14 H         144.7734  143.8177  166.9877 H       1  UNL1        0.1470
     15 C         144.4797  143.2582  164.9150 C.3     1  UNL1        0.1194
     16 C         145.3114  142.2767  164.1436 C.3     1  UNL1        0.0912
     17 N         145.2750  142.6738  162.6976 N.3     1  UNL1       -0.2937
     18 C         144.4208  143.9008  162.5752 C.3     1  UNL1        0.1061
     19 C         143.9293  144.2619  163.9457 C.3     1  UNL1        0.1956
     20 F         143.0430  145.4230  164.2869 F       1  UNL1       -0.2340
     21 H         144.8765  141.9177  162.1409 H       1  UNL1        0.1234
     22 N         138.6541  137.9627  163.7489 N.pl3   1  UNL1       -0.2825
     23 H         138.5643  136.9893  163.6321 H       1  UNL1        0.1551
     24 C         138.5639  142.7490  161.4022 C.ar    1  UNL1        0.1554
     25 N         138.5886  143.0862  159.9408 N.ar    1  UNL1       -0.1646
     26 N         138.6466  141.8011  159.1695 N.ar    1  UNL1       -0.2487
     27 C         138.6865  141.6703  157.6757 C.3     1  UNL1        0.1537
     28 C         138.6576  140.6695  160.1541 C.ar    1  UNL1        0.0796
     29 C         138.7075  139.1814  159.9724 C.ar    1  UNL1        0.0201
     30 C         138.7064  138.2792  161.1707 C.ar    1  UNL1        0.0162
     31 C         138.6552  138.8650  162.5506 C.ar    1  UNL1        0.0506
     32 C         138.6053  140.3531  162.7323 C.ar    1  UNL1        0.0179
     33 C         138.6064  141.2554  161.5340 C.ar    1  UNL1        0.0423
     34 C         139.2235  144.4579  164.9228 C.3     1  UNL1        0.1110
     35 N         139.2809  143.4743  163.7918 N.am    1  UNL1       -0.2979
     36 C         138.5065  143.7326  162.5332 C.2     1  UNL1        0.2654
     37 O         137.6750  144.9744  162.4058 O.2     1  UNL1       -0.2684
     38 H         139.8267  142.6592  163.8754 H       1  UNL1        0.1498
@<TRIPOS>BOND
     1    34    35    1
     2    35    36   am
     3    36    37    2
     4    36    24    1
     5    24    25   ar
     6    25    26   ar
     7    26    27    1
     8    26    28   ar
     9    28    29   ar
    10    29    30   ar
    11    30    31   ar
    12    31    22    1
    13    22     1    1
    14     1     2   ar
    15     2     3   ar
    16     3     4   ar
    17     4     5   ar
    18     5     7    1
    19     7     8   ar
    20     8     9   ar
    21     9    13    1
    22    15    13    1
    23    15    16    1
    24    16    17    1
    25    17    18    1
    26    18    19    1
    27    19    20    1
    28     9    10   ar
    29    10    11    1
    30    10    12   ar
    31     5     6   ar
    32    31    32   ar
    33    32    33   ar
    34    33    24   ar
    35    33    28   ar
    36     6     1   ar
    37    12     7   ar
    38    19    15    1
    39    35    38    1
    40    22    23    1
    41    13    14    1
    42    17    21    1
@<TRIPOS>MOLECULE
*****
 38 42 0 0 0
SMALL
GASTEIGER

@<TRIPOS>ATOM
      1 C         138.2809  139.9945  161.4442 C.ar    1  UNL1        0.2221
      2 N         138.6696  138.5940  161.0734 N.ar    1  UNL1       -0.2119
      3 C         139.3162  137.7010  162.0906 C.ar    1  UNL1        0.1050
      4 C         139.5739  138.2084  163.4784 C.ar    1  UNL1        0.0596
      5 C         139.1852  139.6089  163.8491 C.ar    1  UNL1        0.1683
      6 N         138.5387  140.5020  162.8321 N.ar    1  UNL1       -0.1944
      7 N         139.4429  140.1164  165.2369 N.ar    1  UNL1       -0.2096
      8 C         139.2419  139.3467  166.5086 C.ar    1  UNL1        0.1175
      9 C         139.6217  140.2372  167.6544 C.ar    1  UNL1        0.0796
     10 C         140.0574  141.5573  167.0907 C.ar    1  UNL1        0.0939
     11 C         140.5220  142.7438  167.8822 C.3     1  UNL1        0.0553
     12 N         139.9469  141.4826  165.5967 N.ar    1  UNL1       -0.1668
     13 N         139.5741  139.8719  169.1084 N.pl3   1  UNL1       -0.3285
     14 H         138.7445  139.5137  169.4991 H       1  UNL1        0.1470
     15 C         140.7906  140.0523  169.9672 C.3     1  UNL1        0.1194
     16 C         140.8358  140.7430  171.2980 C.3     1  UNL1        0.0912
     17 N         142.2486  140.6913  171.7993 N.3     1  UNL1       -0.2937
     18 C         143.0766  139.9687  170.7783 C.3     1  UNL1        0.1061
     19 C         142.1754  139.5738  169.6460 C.3     1  UNL1        0.1956
     20 F         142.5870  138.8309  168.4097 F       1  UNL1       -0.2340
     21 H         142.2824  140.1924  172.6884 H       1  UNL1        0.1234
     22 N         137.6344  140.8876  160.4271 N.pl3   1  UNL1       -0.2825
     23 H         136.6786  140.7820  160.2160 H       1  UNL1        0.1551
     24 C         141.2546  144.7999  160.3181 C.ar    1  UNL1        0.1554
     25 N         141.7278  145.6182  159.1534 N.ar    1  UNL1       -0.1646
     26 N         140.9917  145.1544  157.9315 N.ar    1  UNL1       -0.2487
     27 C         141.1550  145.6997  156.5437 C.3     1  UNL1        0.1537
     28 C         140.0634  144.0495  158.3410 C.ar    1  UNL1        0.0796
     29 C         139.0913  143.2147  157.5614 C.ar    1  UNL1        0.0201
     30 C         138.2816  142.1607  158.2568 C.ar    1  UNL1        0.0162
     31 C         138.4441  141.9416  159.7318 C.ar    1  UNL1        0.0506
     32 C         139.4163  142.7765  160.5114 C.ar    1  UNL1        0.0179
     33 C         140.2259  143.8304  159.8160 C.ar    1  UNL1        0.0423
     34 C         143.6633  144.9634  163.4680 C.3     1  UNL1        0.1110
     35 N         143.1908  144.8348  162.0502 N.am    1  UNL1       -0.2979
     36 C         141.7270  144.9285  161.7359 C.2     1  UNL1        0.2654
     37 O         140.7358  145.1508  162.8395 O.2     1  UNL1       -0.2684
     38 H         143.8414  144.6889  161.3258 H       1  UNL1        0.1498
@<TRIPOS>BOND
     1    34    35    1
     2    35    36   am
     3    36    37    2
     4    36    24    1
     5    24    25   ar
     6    25    26   ar
     7    26    27    1
     8    26    28   ar
     9    28    29   ar
    10    29    30   ar
    11    30    31   ar
    12    31    22    1
    13    22     1    1
    14     1     2   ar
    15     2     3   ar
    16     3     4   ar
    17     4     5   ar
    18     5     7    1
    19     7     8   ar
    20     8     9   ar
    21     9    13    1
    22    15    13    1
    23    15    16    1
    24    16    17    1
    25    17    18    1
    26    18    19    1
    27    19    20    1
    28     9    10   ar
    29    10    11    1
    30    10    12   ar
    31     5     6   ar
    32    31    32   ar
    33    32    33   ar
    34    33    24   ar
    35    33    28   ar
    36     6     1   ar
    37    12     7   ar
    38    19    15    1
    39    35    38    1
    40    22    23    1
    41    13    14    1
    42    17    21    1
@<TRIPOS>MOLECULE
*****
 38 42 0 0 0
SMALL
GASTEIGER

@<TRIPOS>ATOM
      1 C         138.3506  139.8906  162.1309 C.ar    1  UNL1        0.2221
      2 N         138.1443  138.4048  162.1250 N.ar    1  UNL1       -0.2119
      3 C         138.8475  137.5460  163.1340 C.ar    1  UNL1        0.1050
      4 C         139.7570  138.1728  164.1487 C.ar    1  UNL1        0.0596
      5 C         139.9633  139.6586  164.1547 C.ar    1  UNL1        0.1683
      6 N         139.2602  140.5174  163.1458 N.ar    1  UNL1       -0.1944
      7 N         140.8728  140.2854  165.1694 N.ar    1  UNL1       -0.2096
      8 C         140.9155  139.9629  166.6337 C.ar    1  UNL1        0.1175
      9 C         141.9684  140.8230  167.2674 C.ar    1  UNL1        0.0796
     10 C         142.5765  141.6772  166.1947 C.ar    1  UNL1        0.0939
     11 C         143.6697  142.6864  166.3851 C.3     1  UNL1        0.0553
     12 N         141.8994  141.3449  164.8981 N.ar    1  UNL1       -0.1668
     13 N         142.3467  140.8281  168.7189 N.pl3   1  UNL1       -0.3285
     14 H         143.1692  140.3751  169.0147 H       1  UNL1        0.1470
     15 C         141.4721  141.5234  169.7195 C.3     1  UNL1        0.1194
     16 C         141.4001  141.2227  171.1873 C.3     1  UNL1        0.0912
     17 N         140.3993  142.1550  171.8030 N.3     1  UNL1       -0.2937
     18 C         139.8526  143.0320  170.7157 C.3     1  UNL1        0.1061
     19 C         140.5157  142.6416  169.4281 C.3     1  UNL1        0.1956
     20 F         140.2661  143.2608  168.0848 F       1  UNL1       -0.2340
     21 H         140.8522  142.7279  172.5150 H       1  UNL1        0.1234
     22 N         137.6474  140.7494  161.1221 N.pl3   1  UNL1       -0.2825
     23 H         136.6781  140.6504  160.9816 H       1  UNL1        0.1551
     24 C         141.2024  144.6905  160.6181 C.ar    1  UNL1        0.1554
     25 N         141.6305  145.4256  159.3826 N.ar    1  UNL1       -0.1646
     26 N         140.8681  144.8619  158.2203 N.ar    1  UNL1       -0.2487
     27 C         140.9845  145.3040  156.7917 C.3     1  UNL1        0.1537
     28 C         139.9687  143.7785  158.7374 C.ar    1  UNL1        0.0796
     29 C         138.9884  142.8747  158.0504 C.ar    1  UNL1        0.0201
     30 C         138.2146  141.8650  158.8453 C.ar    1  UNL1        0.0162
     31 C         138.4212  141.7592  160.3272 C.ar    1  UNL1        0.0506
     32 C         139.4016  142.6629  161.0142 C.ar    1  UNL1        0.0179
     33 C         140.1753  143.6726  160.2194 C.ar    1  UNL1        0.0423
     34 C         143.6971  145.1731  163.6667 C.3     1  UNL1        0.1110
     35 N         143.1877  144.9324  162.2765 N.am    1  UNL1       -0.2979
     36 C         141.7118  144.9312  162.0083 C.2     1  UNL1        0.2654
     37 O         140.7455  145.1706  163.1302 O.2     1  UNL1       -0.2684
     38 H         143.8220  144.7753  161.5401 H       1  UNL1        0.1498
@<TRIPOS>BOND
     1    34    35    1
     2    35    36   am
     3    36    37    2
     4    36    24    1
     5    24    25   ar
     6    25    26   ar
     7    26    27    1
     8    26    28   ar
     9    28    29   ar
    10    29    30   ar
    11    30    31   ar
    12    31    22    1
    13    22     1    1
    14     1     2   ar
    15     2     3   ar
    16     3     4   ar
    17     4     5   ar
    18     5     7    1
    19     7     8   ar
    20     8     9   ar
    21     9    13    1
    22    15    13    1
    23    15    16    1
    24    16    17    1
    25    17    18    1
    26    18    19    1
    27    19    20    1
    28     9    10   ar
    29    10    11    1
    30    10    12   ar
    31     5     6   ar
    32    31    32   ar
    33    32    33   ar
    34    33    24   ar
    35    33    28   ar
    36     6     1   ar
    37    12     7   ar
    38    19    15    1
    39    35    38    1
    40    22    23    1
    41    13    14    1
    42    17    21    1
@<TRIPOS>MOLECULE
*****
 38 42 0 0 0
SMALL
GASTEIGER

@<TRIPOS>ATOM
      1 C         143.4859  139.8958  161.6993 C.ar    1  UNL1        0.2221
      2 N         143.0327  138.6470  161.0029 N.ar    1  UNL1       -0.2119
      3 C         142.2366  137.6184  161.7501 C.ar    1  UNL1        0.1050
      4 C         141.8937  137.8386  163.1937 C.ar    1  UNL1        0.0596
      5 C         142.3470  139.0874  163.8901 C.ar    1  UNL1        0.1683
      6 N         143.1430  140.1160  163.1430 N.ar    1  UNL1       -0.1944
      7 N         142.0041  139.3077  165.3337 N.ar    1  UNL1       -0.2096
      8 C         142.9653  139.2655  166.4845 C.ar    1  UNL1        0.1175
      9 C         142.1951  139.5405  167.7420 C.ar    1  UNL1        0.0796
     10 C         140.7580  139.7526  167.3683 C.ar    1  UNL1        0.0939
     11 C         139.6358  140.0555  168.3165 C.3     1  UNL1        0.0553
     12 N         140.6399  139.6087  165.8799 N.ar    1  UNL1       -0.1668
     13 N         142.7625  139.5941  169.1295 N.pl3   1  UNL1       -0.3285
     14 H         143.2016  138.8006  169.5127 H       1  UNL1        0.1470
     15 C         142.6608  140.8564  169.9332 C.3     1  UNL1        0.1194
     16 C         142.0798  140.9804  171.3106 C.3     1  UNL1        0.0912
     17 N         142.1822  142.4171  171.7293 N.3     1  UNL1       -0.2937
     18 C         142.8265  143.1812  170.6106 C.3     1  UNL1        0.1061
     19 C         143.1222  142.2165  169.5006 C.3     1  UNL1        0.1956
     20 F         143.7664  142.5531  168.1884 F       1  UNL1       -0.2340
     21 H         142.7512  142.4922  172.5725 H       1  UNL1        0.1234
     22 N         144.2820  140.9244  160.9522 N.pl3   1  UNL1       -0.2825
     23 H         145.2655  140.8794  160.9499 H       1  UNL1        0.1551
     24 C         140.6000  144.7521  160.4882 C.ar    1  UNL1        0.1554
     25 N         140.3265  145.6658  159.3305 N.ar    1  UNL1       -0.1646
     26 N         141.2999  145.3344  158.2385 N.ar    1  UNL1       -0.2487
     27 C         141.3836  146.0039  156.8988 C.3     1  UNL1        0.1537
     28 C         142.1751  144.2159  158.7213 C.ar    1  UNL1        0.0796
     29 C         143.3100  143.4786  158.0745 C.ar    1  UNL1        0.0201
     30 C         144.0123  142.3815  158.8181 C.ar    1  UNL1        0.0162
     31 C         143.5796  142.0216  160.2086 C.ar    1  UNL1        0.0506
     32 C         142.4448  142.7589  160.8554 C.ar    1  UNL1        0.0179
     33 C         141.7425  143.8560  160.1117 C.ar    1  UNL1        0.0423
     34 C         137.7443  144.1325  163.1736 C.3     1  UNL1        0.1110
     35 N         138.4835  144.1475  161.8685 N.am    1  UNL1       -0.2979
     36 C         139.8608  144.7371  161.7933 C.2     1  UNL1        0.2654
     37 O         140.4987  145.3117  163.0233 O.2     1  UNL1       -0.2684
     38 H         138.0647  143.7704  161.0612 H       1  UNL1        0.1498
@<TRIPOS>BOND
     1    34    35    1
     2    35    36   am
     3    36    37    2
     4    36    24    1
     5    24    25   ar
     6    25    26   ar
     7    26    27    1
     8    26    28   ar
     9    28    29   ar
    10    29    30   ar
    11    30    31   ar
    12    31    22    1
    13    22     1    1
    14     1     2   ar
    15     2     3   ar
    16     3     4   ar
    17     4     5   ar
    18     5     7    1
    19     7     8   ar
    20     8     9   ar
    21     9    13    1
    22    15    13    1
    23    15    16    1
    24    16    17    1
    25    17    18    1
    26    18    19    1
    27    19    20    1
    28     9    10   ar
    29    10    11    1
    30    10    12   ar
    31     5     6   ar
    32    31    32   ar
    33    32    33   ar
    34    33    24   ar
    35    33    28   ar
    36     6     1   ar
    37    12     7   ar
    38    19    15    1
    39    35    38    1
    40    22    23    1
    41    13    14    1
    42    17    21    1
@<TRIPOS>MOLECULE
*****
 38 42 0 0 0
SMALL
GASTEIGER

@<TRIPOS>ATOM
      1 C         141.7833  143.7089  162.9960 C.ar    1  UNL1        0.2221
      2 N         141.0020  144.9889  162.9637 N.ar    1  UNL1       -0.2119
      3 C         139.7975  145.1547  163.8422 C.ar    1  UNL1        0.1050
      4 C         139.3744  144.0405  164.7530 C.ar    1  UNL1        0.0596
      5 C         140.1557  142.7605  164.7853 C.ar    1  UNL1        0.1683
      6 N         141.3602  142.5947  163.9068 N.ar    1  UNL1       -0.1944
      7 N         139.7326  141.6464  165.6961 N.ar    1  UNL1       -0.2096
      8 C         140.0908  141.5087  167.1462 C.ar    1  UNL1        0.1175
      9 C         139.4566  140.2515  167.6630 C.ar    1  UNL1        0.0796
     10 C         138.7064  139.6121  166.5323 C.ar    1  UNL1        0.0939
     11 C         137.9231  138.3349  166.6045 C.3     1  UNL1        0.0553
     12 N         138.8770  140.4742  165.3167 N.ar    1  UNL1       -0.1668
     13 N         139.5552  139.7259  169.0644 N.pl3   1  UNL1       -0.3285
     14 H         138.8212  139.1891  169.4416 H       1  UNL1        0.1470
     15 C         140.7722  140.0181  169.8911 C.3     1  UNL1        0.1194
     16 C         140.7904  140.7231  171.2150 C.3     1  UNL1        0.0912
     17 N         142.2142  140.7973  171.6812 N.3     1  UNL1       -0.2937
     18 C         143.0760  140.1381  170.6454 C.3     1  UNL1        0.1061
     19 C         142.1848  139.6565  169.5391 C.3     1  UNL1        0.1956
     20 F         142.6283  138.9394  168.2985 F       1  UNL1       -0.2340
     21 H         142.3122  140.3119  172.5729 H       1  UNL1        0.1234
     22 N         142.9878  143.5431  162.1176 N.pl3   1  UNL1       -0.2825
     23 H         143.7668  144.1337  162.2337 H       1  UNL1        0.1551
     24 C         141.8341  138.6857  160.2470 C.ar    1  UNL1        0.1554
     25 N         142.1558  138.0861  158.9102 N.ar    1  UNL1       -0.1646
     26 N         142.9014  139.1122  158.1094 N.ar    1  UNL1       -0.2487
     27 C         143.4173  138.9356  156.7121 C.3     1  UNL1        0.1537
     28 C         143.0405  140.3459  158.9513 C.ar    1  UNL1        0.0796
     29 C         143.6825  141.6752  158.6856 C.ar    1  UNL1        0.0201
     30 C         143.6650  142.7409  159.7410 C.ar    1  UNL1        0.0162
     31 C         143.0054  142.4773  161.0621 C.ar    1  UNL1        0.0506
     32 C         142.3633  141.1480  161.3278 C.ar    1  UNL1        0.0179
     33 C         142.3809  140.0823  160.2724 C.ar    1  UNL1        0.0423
     34 C         141.0857  136.9307  163.7270 C.3     1  UNL1        0.1110
     35 N         141.8245  137.6087  162.6114 N.am    1  UNL1       -0.2979
     36 C         141.0954  138.0077  161.3626 C.2     1  UNL1        0.2654
     37 O         139.6277  137.7286  161.2296 O.2     1  UNL1       -0.2684
     38 H         142.7879  137.7918  162.6988 H       1  UNL1        0.1498
@<TRIPOS>BOND
     1    34    35    1
     2    35    36   am
     3    36    37    2
     4    36    24    1
     5    24    25   ar
     6    25    26   ar
     7    26    27    1
     8    26    28   ar
     9    28    29   ar
    10    29    30   ar
    11    30    31   ar
    12    31    22    1
    13    22     1    1
    14     1     2   ar
    15     2     3   ar
    16     3     4   ar
    17     4     5   ar
    18     5     7    1
    19     7     8   ar
    20     8     9   ar
    21     9    13    1
    22    15    13    1
    23    15    16    1
    24    16    17    1
    25    17    18    1
    26    18    19    1
    27    19    20    1
    28     9    10   ar
    29    10    11    1
    30    10    12   ar
    31     5     6   ar
    32    31    32   ar
    33    32    33   ar
    34    33    24   ar
    35    33    28   ar
    36     6     1   ar
    37    12     7   ar
    38    19    15    1
    39    35    38    1
    40    22    23    1
    41    13    14    1
    42    17    21    1
@<TRIPOS>MOLECULE
*****
 38 42 0 0 0
SMALL
GASTEIGER

@<TRIPOS>ATOM
      1 C         140.0534  144.7694  162.2729 C.ar    1  UNL1        0.2221
      2 N         138.5711  144.9934  162.3246 N.ar    1  UNL1       -0.2119
      3 C         137.7271  144.2089  163.2850 C.ar    1  UNL1        0.1050
      4 C         138.3653  143.2005  164.1937 C.ar    1  UNL1        0.0596
      5 C         139.8476  142.9766  164.1420 C.ar    1  UNL1        0.1683
      6 N         140.6916  143.7610  163.1817 N.ar    1  UNL1       -0.1944
      7 N         140.4859  141.9682  165.0507 N.ar    1  UNL1       -0.2096
      8 C         140.3185  141.8923  166.5394 C.ar    1  UNL1        0.1175
      9 C         141.1328  140.7359  167.0391 C.ar    1  UNL1        0.0796
     10 C         141.8034  140.0971  165.8591 C.ar    1  UNL1        0.0939
     11 C         142.7140  138.9058  165.9007 C.3     1  UNL1        0.0553
     12 N         141.4036  140.8587  164.6303 N.ar    1  UNL1       -0.1668
     13 N         141.2550  140.2955  168.4677 N.pl3   1  UNL1       -0.3285
     14 H         141.0010  139.3795  168.7239 H       1  UNL1        0.1470
     15 C         141.7641  141.2508  169.5061 C.3     1  UNL1        0.1194
     16 C         141.3266  141.3103  170.9396 C.3     1  UNL1        0.0912
     17 N         142.0923  142.4106  171.6127 N.3     1  UNL1       -0.2937
     18 C         143.0031  143.0312  170.5951 C.3     1  UNL1        0.1061
     19 C         142.8002  142.3143  169.2931 C.3     1  UNL1        0.1956
     20 F         143.5091  142.6093  168.0045 F       1  UNL1       -0.2340
     21 H         142.6422  142.0290  172.3824 H       1  UNL1        0.1234
     22 N         140.8974  145.5538  161.3126 N.pl3   1  UNL1       -0.2825
     23 H         141.2456  146.4375  161.5716 H       1  UNL1        0.1551
     24 C         140.3774  145.3597  156.0102 C.ar    1  UNL1        0.1554
     25 N         141.0464  144.4452  155.0272 N.ar    1  UNL1       -0.1646
     26 N         141.9491  143.5232  155.7921 N.ar    1  UNL1       -0.2487
     27 C         142.8115  142.4456  155.2046 C.3     1  UNL1        0.1537
     28 C         141.8380  143.8678  157.2478 C.ar    1  UNL1        0.0796
     29 C         142.4958  143.2948  158.4679 C.ar    1  UNL1        0.0201
     30 C         142.1823  143.8568  159.8228 C.ar    1  UNL1        0.0162
     31 C         141.2109  144.9918  159.9576 C.ar    1  UNL1        0.0506
     32 C         140.5531  145.5649  158.7374 C.ar    1  UNL1        0.0179
     33 C         140.8666  145.0029  157.3825 C.ar    1  UNL1        0.0423
     34 C         138.7735  148.9617  155.5594 C.3     1  UNL1        0.1110
     35 N         139.7588  147.8803  155.8907 N.am    1  UNL1       -0.2979
     36 C         139.3922  146.4412  155.6789 C.2     1  UNL1        0.2654
     37 O         138.0405  146.0837  155.1359 O.2     1  UNL1       -0.2684
     38 H         140.6460  148.1149  156.2471 H       1  UNL1        0.1498
@<TRIPOS>BOND
     1    34    35    1
     2    35    36   am
     3    36    37    2
     4    36    24    1
     5    24    25   ar
     6    25    26   ar
     7    26    27    1
     8    26    28   ar
     9    28    29   ar
    10    29    30   ar
    11    30    31   ar
    12    31    22    1
    13    22     1    1
    14     1     2   ar
    15     2     3   ar
    16     3     4   ar
    17     4     5   ar
    18     5     7    1
    19     7     8   ar
    20     8     9   ar
    21     9    13    1
    22    15    13    1
    23    15    16    1
    24    16    17    1
    25    17    18    1
    26    18    19    1
    27    19    20    1
    28     9    10   ar
    29    10    11    1
    30    10    12   ar
    31     5     6   ar
    32    31    32   ar
    33    32    33   ar
    34    33    24   ar
    35    33    28   ar
    36     6     1   ar
    37    12     7   ar
    38    19    15    1
    39    35    38    1
    40    22    23    1
    41    13    14    1
    42    17    21    1
@<TRIPOS>MOLECULE
*****
 38 42 0 0 0
SMALL
GASTEIGER

@<TRIPOS>ATOM
      1 C         144.2358  141.3923  161.7825 C.ar    1  UNL1        0.2221
      2 N         145.5205  141.7760  162.4550 N.ar    1  UNL1       -0.2119
      3 C         145.6062  141.7965  163.9525 C.ar    1  UNL1        0.1050
      4 C         144.4072  141.4333  164.7774 C.ar    1  UNL1        0.0596
      5 C         143.1225  141.0496  164.1048 C.ar    1  UNL1        0.1683
      6 N         143.0368  141.0290  162.6075 N.ar    1  UNL1       -0.1944
      7 N         141.9235  140.6864  164.9297 N.ar    1  UNL1       -0.2096
      8 C         141.8933  140.5326  166.4215 C.ar    1  UNL1        0.1175
      9 C         140.4953  140.1643  166.8214 C.ar    1  UNL1        0.0796
     10 C         139.6614  140.0905  165.5767 C.ar    1  UNL1        0.0939
     11 C         138.2012  139.7533  165.5124 C.3     1  UNL1        0.0553
     12 N         140.5441  140.4132  164.4076 N.ar    1  UNL1       -0.1668
     13 N         140.0154  139.9139  168.2203 N.pl3   1  UNL1       -0.3285
     14 H         139.2167  139.3594  168.3748 H       1  UNL1        0.1470
     15 C         140.7524  140.5082  169.3837 C.3     1  UNL1        0.1194
     16 C         141.5449  139.7490  170.4062 C.3     1  UNL1        0.0912
     17 N         142.1086  140.7377  171.3834 N.3     1  UNL1       -0.2937
     18 C         141.6644  142.1079  170.9648 C.3     1  UNL1        0.1061
     19 C         140.8262  141.9660  169.7289 C.3     1  UNL1        0.1956
     20 F         140.1761  143.0855  168.9713 F       1  UNL1       -0.2340
     21 H         143.1273  140.6873  171.3780 H       1  UNL1        0.1234
     22 N         144.1501  141.3717  160.2851 N.pl3   1  UNL1       -0.2825
     23 H         144.6181  140.6718  159.7749 H       1  UNL1        0.1551
     24 C         140.3786  145.1310  160.0257 C.ar    1  UNL1        0.1554
     25 N         139.9625  145.9740  158.8569 N.ar    1  UNL1       -0.1646
     26 N         140.8127  145.5897  157.6823 N.ar    1  UNL1       -0.2487
     27 C         140.7350  146.1820  156.3064 C.3     1  UNL1        0.1537
     28 C         141.7542  144.5093  158.1253 C.ar    1  UNL1        0.0796
     29 C         142.8211  143.7470  157.3969 C.ar    1  UNL1        0.0201
     30 C         143.6197  142.7011  158.1169 C.ar    1  UNL1        0.0162
     31 C         143.3514  142.4176  159.5652 C.ar    1  UNL1        0.0506
     32 C         142.2845  143.1799  160.2935 C.ar    1  UNL1        0.0179
     33 C         141.4859  144.2257  159.5736 C.ar    1  UNL1        0.0423
     34 C         138.0785  144.3159  163.1556 C.3     1  UNL1        0.1110
     35 N         138.6665  144.2630  161.7766 N.am    1  UNL1       -0.2979
     36 C         139.7906  145.1840  161.4047 C.2     1  UNL1        0.2654
     37 O         140.3267  146.1578  162.4117 O.2     1  UNL1       -0.2684
     38 H         138.3146  143.6238  161.1156 H       1  UNL1        0.1498
@<TRIPOS>BOND
     1    34    35    1
     2    35    36   am
     3    36    37    2
     4    36    24    1
     5    24    25   ar
     6    25    26   ar
     7    26    27    1
     8    26    28   ar
     9    28    29   ar
    10    29    30   ar
    11    30    31   ar
    12    31    22    1
    13    22     1    1
    14     1     2   ar
    15     2     3   ar
    16     3     4   ar
    17     4     5   ar
    18     5     7    1
    19     7     8   ar
    20     8     9   ar
    21     9    13    1
    22    15    13    1
    23    15    16    1
    24    16    17    1
    25    17    18    1
    26    18    19    1
    27    19    20    1
    28     9    10   ar
    29    10    11    1
    30    10    12   ar
    31     5     6   ar
    32    31    32   ar
    33    32    33   ar
    34    33    24   ar
    35    33    28   ar
    36     6     1   ar
    37    12     7   ar
    38    19    15    1
    39    35    38    1
    40    22    23    1
    41    13    14    1
    42    17    21    1
@<TRIPOS>MOLECULE
*****
 38 42 0 0 0
SMALL
GASTEIGER

@<TRIPOS>ATOM
      1 C         142.7399  138.2927  160.6763 C.ar    1  UNL1        0.2221
      2 N         142.8189  137.4663  159.4269 N.ar    1  UNL1       -0.2119
      3 C         142.7057  138.1247  158.0838 C.ar    1  UNL1        0.1050
      4 C         142.5136  139.6094  157.9901 C.ar    1  UNL1        0.0596
      5 C         142.4347  140.4357  159.2395 C.ar    1  UNL1        0.1683
      6 N         142.5478  139.7774  160.5825 N.ar    1  UNL1       -0.1944
      7 N         142.2426  141.9204  159.1458 N.ar    1  UNL1       -0.2096
      8 C         141.8134  142.8261  160.2618 C.ar    1  UNL1        0.1175
      9 C         141.7515  144.2255  159.7254 C.ar    1  UNL1        0.0796
     10 C         142.1425  144.1847  158.2778 C.ar    1  UNL1        0.0939
     11 C         142.2168  145.3619  157.3511 C.3     1  UNL1        0.0553
     12 N         142.4459  142.7601  157.9196 N.ar    1  UNL1       -0.1668
     13 N         141.3663  145.4506  160.5004 N.pl3   1  UNL1       -0.3285
     14 H         141.4389  146.3397  160.0838 H       1  UNL1        0.1470
     15 C         140.8706  145.3212  161.9102 C.3     1  UNL1        0.1194
     16 C         139.4385  145.3899  162.3511 C.3     1  UNL1        0.0912
     17 N         139.4028  145.2115  163.8400 N.3     1  UNL1       -0.2937
     18 C         140.8129  145.0326  164.3194 C.3     1  UNL1        0.1061
     19 C         141.7200  145.1004  163.1266 C.3     1  UNL1        0.1956
     20 F         143.2142  144.9703  163.1469 F       1  UNL1       -0.2340
     21 H         138.8496  144.3879  164.0768 H       1  UNL1        0.1234
     22 N         142.8530  137.6344  162.0193 N.pl3   1  UNL1       -0.2825
     23 H         143.5668  136.9774  162.1869 H       1  UNL1        0.1551
     24 C         141.2828  140.4038  166.2958 C.ar    1  UNL1        0.1554
     25 N         140.0089  140.2913  167.0798 N.ar    1  UNL1       -0.1646
     26 N         139.1727  139.2151  166.4534 N.ar    1  UNL1       -0.2487
     27 C         137.8173  138.7697  166.9167 C.3     1  UNL1        0.1537
     28 C         139.9297  138.6624  165.2823 C.ar    1  UNL1        0.0796
     29 C         139.6000  137.5851  164.2921 C.ar    1  UNL1        0.0201
     30 C         140.5744  137.2424  163.2044 C.ar    1  UNL1        0.0162
     31 C         141.8786  137.9771  163.1070 C.ar    1  UNL1        0.0506
     32 C         142.2083  139.0544  164.0973 C.ar    1  UNL1        0.0179
     33 C         141.2338  139.3970  165.1849 C.ar    1  UNL1        0.0423
     34 C         144.0926  143.1519  165.7452 C.3     1  UNL1        0.1110
     35 N         142.9673  142.1998  165.4671 N.am    1  UNL1       -0.2979
     36 C         142.4080  141.3558  166.5739 C.2     1  UNL1        0.2654
     37 O         142.9741  141.4640  167.9587 O.2     1  UNL1       -0.2684
     38 H         142.5958  142.1289  164.5581 H       1  UNL1        0.1498
@<TRIPOS>BOND
     1    34    35    1
     2    35    36   am
     3    36    37    2
     4    36    24    1
     5    24    25   ar
     6    25    26   ar
     7    26    27    1
     8    26    28   ar
     9    28    29   ar
    10    29    30   ar
    11    30    31   ar
    12    31    22    1
    13    22     1    1
    14     1     2   ar
    15     2     3   ar
    16     3     4   ar
    17     4     5   ar
    18     5     7    1
    19     7     8   ar
    20     8     9   ar
    21     9    13    1
    22    15    13    1
    23    15    16    1
    24    16    17    1
    25    17    18    1
    26    18    19    1
    27    19    20    1
    28     9    10   ar
    29    10    11    1
    30    10    12   ar
    31     5     6   ar
    32    31    32   ar
    33    32    33   ar
    34    33    24   ar
    35    33    28   ar
    36     6     1   ar
    37    12     7   ar
    38    19    15    1
    39    35    38    1
    40    22    23    1
    41    13    14    1
    42    17    21    1
@<TRIPOS>MOLECULE
*****
 38 42 0 0 0
SMALL
GASTEIGER

@<TRIPOS>ATOM
      1 C         141.2408  139.0416  161.1587 C.ar    1  UNL1        0.2221
      2 N         142.5576  138.4893  160.6995 N.ar    1  UNL1       -0.2119
      3 C         143.6387  138.1997  161.6983 C.ar    1  UNL1        0.1050
      4 C         143.4029  138.4623  163.1561 C.ar    1  UNL1        0.0596
      5 C         142.0860  139.0146  163.6153 C.ar    1  UNL1        0.1683
      6 N         141.0050  139.3042  162.6166 N.ar    1  UNL1       -0.1944
      7 N         141.8502  139.2773  165.0731 N.ar    1  UNL1       -0.2096
      8 C         142.8770  139.1860  166.1629 C.ar    1  UNL1        0.1175
      9 C         142.2076  139.5296  167.4605 C.ar    1  UNL1        0.0796
     10 C         140.7671  139.8333  167.1727 C.ar    1  UNL1        0.0939
     11 C         139.7296  140.2243  168.1830 C.3     1  UNL1        0.0553
     12 N         140.5462  139.6773  165.6973 N.ar    1  UNL1       -0.1668
     13 N         142.8635  139.5636  168.8090 N.pl3   1  UNL1       -0.3285
     14 H         143.3915  138.7927  169.1192 H       1  UNL1        0.1470
     15 C         142.7149  140.7721  169.6850 C.3     1  UNL1        0.1194
     16 C         142.1162  140.7961  171.0601 C.3     1  UNL1        0.0912
     17 N         142.1703  142.2076  171.5647 N.3     1  UNL1       -0.2937
     18 C         142.8025  143.0561  170.5014 C.3     1  UNL1        0.1061
     19 C         143.1391  142.1688  169.3397 C.3     1  UNL1        0.1956
     20 F         143.7863  142.6022  168.0578 F       1  UNL1       -0.2340
     21 H         142.7279  142.2491  172.4178 H       1  UNL1        0.1234
     22 N         140.1597  139.3312  160.1600 N.pl3   1  UNL1       -0.2825
     23 H         139.4997  138.6367  159.9338 H       1  UNL1        0.1551
     24 C         140.7127  144.6337  160.1211 C.ar    1  UNL1        0.1554
     25 N         140.4437  145.6044  159.0097 N.ar    1  UNL1       -0.1646
     26 N         139.9621  144.8263  157.8212 N.ar    1  UNL1       -0.2487
     27 C         139.5767  145.3991  156.4895 C.3     1  UNL1        0.1537
     28 C         139.9335  143.3747  158.1981 C.ar    1  UNL1        0.0796
     29 C         139.5450  142.1459  157.4306 C.ar    1  UNL1        0.0201
     30 C         139.6204  140.7981  158.0846 C.ar    1  UNL1        0.0162
     31 C         140.0843  140.6791  159.5060 C.ar    1  UNL1        0.0506
     32 C         140.4729  141.9079  160.2735 C.ar    1  UNL1        0.0179
     33 C         140.3974  143.2557  159.6195 C.ar    1  UNL1        0.0423
     34 C         143.1483  145.1078  163.2185 C.3     1  UNL1        0.1110
     35 N         142.6512  144.7613  161.8463 N.am    1  UNL1       -0.2979
     36 C         141.2098  144.9802  161.4933 C.2     1  UNL1        0.2654
     37 O         140.2657  145.5456  162.5124 O.2     1  UNL1       -0.2684
     38 H         143.2710  144.3902  161.1774 H       1  UNL1        0.1498
@<TRIPOS>BOND
     1    34    35    1
     2    35    36   am
     3    36    37    2
     4    36    24    1
     5    24    25   ar
     6    25    26   ar
     7    26    27    1
     8    26    28   ar
     9    28    29   ar
    10    29    30   ar
    11    30    31   ar
    12    31    22    1
    13    22     1    1
    14     1     2   ar
    15     2     3   ar
    16     3     4   ar
    17     4     5   ar
    18     5     7    1
    19     7     8   ar
    20     8     9   ar
    21     9    13    1
    22    15    13    1
    23    15    16    1
    24    16    17    1
    25    17    18    1
    26    18    19    1
    27    19    20    1
    28     9    10   ar
    29    10    11    1
    30    10    12   ar
    31     5     6   ar
    32    31    32   ar
    33    32    33   ar
    34    33    24   ar
    35    33    28   ar
    36     6     1   ar
    37    12     7   ar
    38    19    15    1
    39    35    38    1
    40    22    23    1
    41    13    14    1
    42    17    21    1
