@<TRIPOS>MOLECULE
*****
 34 38 0 0 0
SMALL
GASTEIGER

@<TRIPOS>ATOM
      1 N         141.1048  137.2043  162.8573 N.pl3   1  UNL1       -0.2803
      2 H         141.1423  136.2207  162.8373 H       1  UNL1        0.1551
      3 C         141.8322  138.0039  161.8173 C.ar    1  UNL1        0.2208
      4 N         142.4649  137.3122  160.6464 N.ar    1  UNL1       -0.2111
      5 C         143.1923  138.1118  159.6064 C.ar    1  UNL1        0.1147
      6 C         143.2870  139.6030  159.7374 C.ar    1  UNL1        0.0946
      7 CL        144.0144  140.4026  158.6974 Cl      1  UNL1       -0.0790
      8 C         142.6542  140.2948  160.9084 C.ar    1  UNL1        0.0992
      9 N         141.9269  139.4952  161.9483 N.ar    1  UNL1       -0.2126
     10 C         142.7489  141.7860  161.0394 C.ar    1  UNL1        0.0572
     11 C         142.3888  142.7885  159.9832 C.ar    1  UNL1        0.1235
     12 N         142.6376  144.1587  160.5407 N.ar    1  UNL1       -0.1634
     13 N         143.1514  144.0030  161.9413 N.ar    1  UNL1       -0.2281
     14 C         143.5656  145.0071  162.9759 C.ar    1  UNL1        0.1004
     15 C         144.0484  144.5448  164.3186 C.ar    1  UNL1        0.0207
     16 C         144.1171  143.0784  164.6269 C.ar    1  UNL1        0.0031
     17 C         143.7030  142.0743  163.5923 C.ar    1  UNL1        0.0193
     18 C         143.2202  142.5366  162.2496 C.ar    1  UNL1        0.0858
     19 C         140.8773  138.8343  164.9637 C.ar    1  UNL1        0.0704
     20 C         140.3203  137.9033  163.9278 C.ar    1  UNL1        0.0850
     21 C         138.8408  137.7939  164.1503 C.ar    1  UNL1        0.1359
     22 N         138.4836  138.6573  165.3237 N.ar    1  UNL1       -0.1667
     23 N         139.7422  139.3003  165.8264 N.ar    1  UNL1       -0.2555
     24 C         139.8472  140.2437  166.9879 C.3     1  UNL1        0.1083
     25 C         140.2067  141.6814  166.7562 C.3     1  UNL1        0.0459
     26 C         140.3118  142.6248  167.9177 C.3     1  UNL1        0.0954
     27 N         140.0572  142.1304  169.3108 N.am    1  UNL1       -0.2794
     28 C         140.1622  143.0738  170.4724 C.2     1  UNL1        0.2261
     29 C         140.5218  144.5115  170.2407 C.3     1  UNL1        0.0948
     30 O         139.9077  142.5794  171.8655 O.2     1  UNL1       -0.2749
     31 C         139.6977  140.6926  169.5425 C.3     1  UNL1        0.0954
     32 C         139.5927  139.7493  168.3810 C.3     1  UNL1        0.0459
     33 C         143.1696  138.5794  166.1595 C.3     1  UNL1        0.0067
     34 C         142.3166  139.2297  165.1110 C.3     1  UNL1        0.0468
@<TRIPOS>BOND
     1    33    34    1
     2    34    19    1
     3    19    20   ar
     4    20     1    1
     5     1     3    1
     6     3     4   ar
     7     4     5   ar
     8     5     6   ar
     9     6     7    1
    10     6     8   ar
    11     8    10    1
    12    10    11   ar
    13    11    12   ar
    14    12    13   ar
    15    13    14   ar
    16    14    15   ar
    17    15    16   ar
    18    16    17   ar
    19    17    18   ar
    20     8     9   ar
    21    20    21   ar
    22    21    22   ar
    23    22    23   ar
    24    23    24    1
    25    24    25    1
    26    25    26    1
    27    26    27    1
    28    27    28   am
    29    28    29    1
    30    28    30    2
    31    27    31    1
    32    31    32    1
    33    23    19   ar
    34    32    24    1
    35     9     3   ar
    36    18    10   ar
    37    18    13   ar
    38     1     2    1
@<TRIPOS>MOLECULE
*****
 34 38 0 0 0
SMALL
GASTEIGER

@<TRIPOS>ATOM
      1 N         137.5134  139.9922  160.4878 N.pl3   1  UNL1       -0.2803
      2 H         136.6063  139.8170  160.1478 H       1  UNL1        0.1551
      3 C         138.4413  140.8882  159.7221 C.ar    1  UNL1        0.2208
      4 N         138.0324  141.4211  158.3810 N.ar    1  UNL1       -0.2111
      5 C         138.9603  142.3171  157.6153 C.ar    1  UNL1        0.1147
      6 C         140.2971  142.6801  158.1908 C.ar    1  UNL1        0.0946
      7 CL        141.2250  143.5761  157.4252 Cl      1  UNL1       -0.0790
      8 C         140.7060  142.1471  159.5321 C.ar    1  UNL1        0.0992
      9 N         139.7781  141.2512  160.2976 N.ar    1  UNL1       -0.2126
     10 C         142.0428  142.5101  160.1076 C.ar    1  UNL1        0.0572
     11 C         143.3750  142.0269  159.6160 C.ar    1  UNL1        0.1235
     12 N         144.4376  142.6382  160.4803 N.ar    1  UNL1       -0.1634
     13 N         143.7621  143.4993  161.5061 N.ar    1  UNL1       -0.2281
     14 C         144.3036  144.3452  162.6202 C.ar    1  UNL1        0.1004
     15 C         143.3649  145.1120  163.5039 C.ar    1  UNL1        0.0207
     16 C         141.8848  145.0328  163.2735 C.ar    1  UNL1        0.0031
     17 C         141.3434  144.1869  162.1595 C.ar    1  UNL1        0.0193
     18 C         142.2821  143.4201  161.2758 C.ar    1  UNL1        0.0858
     19 C         138.0685  140.0484  163.1020 C.ar    1  UNL1        0.0704
     20 C         137.9676  139.3631  161.7715 C.ar    1  UNL1        0.0850
     21 C         138.4008  137.9381  161.9500 C.ar    1  UNL1        0.1359
     22 N         138.7693  137.7427  163.3909 N.ar    1  UNL1       -0.1667
     23 N         138.5639  139.0470  164.1029 N.ar    1  UNL1       -0.2555
     24 C         138.8106  139.3046  165.5598 C.3     1  UNL1        0.1083
     25 C         140.0607  140.0099  165.9955 C.3     1  UNL1        0.0459
     26 C         140.3075  140.2675  167.4526 C.3     1  UNL1        0.0954
     27 N         139.3041  139.8198  168.4737 N.am    1  UNL1       -0.2794
     28 C         139.5509  140.0774  169.9307 C.2     1  UNL1        0.2261
     29 C         140.8009  140.7827  170.3665 C.3     1  UNL1        0.0948
     30 O         138.5475  139.6297  170.9520 O.2     1  UNL1       -0.2749
     31 C         138.0540  139.1145  168.0380 C.3     1  UNL1        0.0954
     32 C         137.8074  138.8569  166.5810 C.3     1  UNL1        0.0459
     33 C         138.8236  142.4574  163.7154 C.3     1  UNL1        0.0067
     34 C         137.7328  141.4831  163.3824 C.3     1  UNL1        0.0468
@<TRIPOS>BOND
     1    33    34    1
     2    34    19    1
     3    19    20   ar
     4    20     1    1
     5     1     3    1
     6     3     4   ar
     7     4     5   ar
     8     5     6   ar
     9     6     7    1
    10     6     8   ar
    11     8    10    1
    12    10    11   ar
    13    11    12   ar
    14    12    13   ar
    15    13    14   ar
    16    14    15   ar
    17    15    16   ar
    18    16    17   ar
    19    17    18   ar
    20     8     9   ar
    21    20    21   ar
    22    21    22   ar
    23    22    23   ar
    24    23    24    1
    25    24    25    1
    26    25    26    1
    27    26    27    1
    28    27    28   am
    29    28    29    1
    30    28    30    2
    31    27    31    1
    32    31    32    1
    33    23    19   ar
    34    32    24    1
    35     9     3   ar
    36    18    10   ar
    37    18    13   ar
    38     1     2    1
@<TRIPOS>MOLECULE
*****
 34 38 0 0 0
SMALL
GASTEIGER

@<TRIPOS>ATOM
      1 N         138.4628  137.8847  162.4237 N.pl3   1  UNL1       -0.2803
      2 H         137.6910  137.2828  162.5301 H       1  UNL1        0.1551
      3 C         138.6873  138.5929  161.1206 C.ar    1  UNL1        0.2208
      4 N         137.6432  139.5274  160.5852 N.ar    1  UNL1       -0.2111
      5 C         137.8678  140.2356  159.2821 C.ar    1  UNL1        0.1147
      6 C         139.1364  140.0093  158.5144 C.ar    1  UNL1        0.0946
      7 CL        139.3610  140.7175  157.2113 Cl      1  UNL1       -0.0790
      8 C         140.1806  139.0747  159.0498 C.ar    1  UNL1        0.0992
      9 N         139.9559  138.3666  160.3529 N.ar    1  UNL1       -0.2126
     10 C         141.4492  138.8484  158.2821 C.ar    1  UNL1        0.0572
     11 C         142.7595  139.5382  158.5214 C.ar    1  UNL1        0.1235
     12 N         143.7503  139.0087  157.5275 N.ar    1  UNL1       -0.1634
     13 N         143.0524  137.9917  156.6740 N.ar    1  UNL1       -0.2281
     14 C         143.5282  137.1430  155.5324 C.ar    1  UNL1        0.1004
     15 C         142.5817  136.1952  154.8571 C.ar    1  UNL1        0.0207
     16 C         141.1595  136.0962  155.3235 C.ar    1  UNL1        0.0031
     17 C         140.6837  136.9449  156.4651 C.ar    1  UNL1        0.0193
     18 C         141.6302  137.8926  157.1404 C.ar    1  UNL1        0.0858
     19 C         139.2725  139.1140  164.6549 C.ar    1  UNL1        0.0704
     20 C         139.4139  138.0936  163.5645 C.ar    1  UNL1        0.0850
     21 C         140.6736  137.3187  163.8153 C.ar    1  UNL1        0.1359
     22 N         141.3107  137.8602  165.0606 N.ar    1  UNL1       -0.1667
     23 N         140.4448  138.9698  165.5796 N.ar    1  UNL1       -0.2555
     24 C         140.7054  139.7909  166.8075 C.3     1  UNL1        0.1083
     25 C         141.9322  140.6501  166.8887 C.3     1  UNL1        0.0459
     26 C         142.1929  141.4712  168.1167 C.3     1  UNL1        0.0954
     27 N         141.2265  141.4331  169.2634 N.am    1  UNL1       -0.2794
     28 C         141.4872  142.2543  170.4914 C.2     1  UNL1        0.2261
     29 C         142.7140  143.1134  170.5726 C.3     1  UNL1        0.0948
     30 O         140.5209  142.2162  171.6381 O.2     1  UNL1       -0.2749
     31 C         139.9997  140.5739  169.1821 C.3     1  UNL1        0.0954
     32 C         139.7392  139.7528  167.9541 C.3     1  UNL1        0.0459
     33 C         138.2112  141.4086  164.0567 C.3     1  UNL1        0.0067
     34 C         138.1551  140.1046  164.7958 C.3     1  UNL1        0.0468
@<TRIPOS>BOND
     1    33    34    1
     2    34    19    1
     3    19    20   ar
     4    20     1    1
     5     1     3    1
     6     3     4   ar
     7     4     5   ar
     8     5     6   ar
     9     6     7    1
    10     6     8   ar
    11     8    10    1
    12    10    11   ar
    13    11    12   ar
    14    12    13   ar
    15    13    14   ar
    16    14    15   ar
    17    15    16   ar
    18    16    17   ar
    19    17    18   ar
    20     8     9   ar
    21    20    21   ar
    22    21    22   ar
    23    22    23   ar
    24    23    24    1
    25    24    25    1
    26    25    26    1
    27    26    27    1
    28    27    28   am
    29    28    29    1
    30    28    30    2
    31    27    31    1
    32    31    32    1
    33    23    19   ar
    34    32    24    1
    35     9     3   ar
    36    18    10   ar
    37    18    13   ar
    38     1     2    1
@<TRIPOS>MOLECULE
*****
 34 38 0 0 0
SMALL
GASTEIGER

@<TRIPOS>ATOM
      1 N         143.0087  137.8060  161.9694 N.pl3   1  UNL1       -0.2803
      2 H         143.5817  137.0180  161.8283 H       1  UNL1        0.1551
      3 C         142.9207  138.8680  160.9138 C.ar    1  UNL1        0.2208
      4 N         143.7110  138.7326  159.6460 N.ar    1  UNL1       -0.2111
      5 C         143.6230  139.7945  158.5904 C.ar    1  UNL1        0.1147
      6 C         142.7447  140.9919  158.8024 C.ar    1  UNL1        0.0946
      7 CL        142.6567  142.0539  157.7467 Cl      1  UNL1       -0.0790
      8 C         141.9544  141.1273  160.0702 C.ar    1  UNL1        0.0992
      9 N         142.0424  140.0654  161.1258 N.ar    1  UNL1       -0.2126
     10 C         141.0762  142.3247  160.2823 C.ar    1  UNL1        0.0572
     11 C         139.8500  142.6701  159.4903 C.ar    1  UNL1        0.1235
     12 N         139.2859  143.9458  160.0421 N.ar    1  UNL1       -0.1634
     13 N         140.1635  144.3888  161.1751 N.ar    1  UNL1       -0.2281
     14 C         140.0981  145.5751  162.0907 C.ar    1  UNL1        0.1004
     15 C         141.1391  145.7594  163.1548 C.ar    1  UNL1        0.0207
     16 C         142.2455  144.7576  163.3032 C.ar    1  UNL1        0.0031
     17 C         142.3110  143.5713  162.3876 C.ar    1  UNL1        0.0193
     18 C         141.2700  143.3869  161.3235 C.ar    1  UNL1        0.0858
     19 C         142.4658  138.9569  164.3202 C.ar    1  UNL1        0.0704
     20 C         142.2236  137.9446  163.2400 C.ar    1  UNL1        0.0850
     21 C         141.0585  137.0952  163.6536 C.ar    1  UNL1        0.1359
     22 N         140.5806  137.5825  164.9893 N.ar    1  UNL1       -0.1667
     23 N         141.4504  138.7331  165.4013 N.ar    1  UNL1       -0.2555
     24 C         141.3265  139.5215  166.6713 C.3     1  UNL1        0.1083
     25 C         140.1994  140.4966  166.8418 C.3     1  UNL1        0.0459
     26 C         140.0755  141.2850  168.1120 C.3     1  UNL1        0.0954
     27 N         141.0786  141.0983  169.2115 N.am    1  UNL1       -0.2794
     28 C         140.9547  141.8867  170.4816 C.2     1  UNL1        0.2261
     29 C         139.8276  142.8618  170.6521 C.3     1  UNL1        0.0948
     30 O         141.9578  141.7001  171.5811 O.2     1  UNL1       -0.2749
     31 C         142.2056  140.1232  169.0409 C.3     1  UNL1        0.0954
     32 C         142.3295  139.3349  167.7708 C.3     1  UNL1        0.0459
     33 C         144.9800  139.6086  164.3800 C.3     1  UNL1        0.0067
     34 C         143.5355  140.0083  164.3193 C.3     1  UNL1        0.0468
@<TRIPOS>BOND
     1    33    34    1
     2    34    19    1
     3    19    20   ar
     4    20     1    1
     5     1     3    1
     6     3     4   ar
     7     4     5   ar
     8     5     6   ar
     9     6     7    1
    10     6     8   ar
    11     8    10    1
    12    10    11   ar
    13    11    12   ar
    14    12    13   ar
    15    13    14   ar
    16    14    15   ar
    17    15    16   ar
    18    16    17   ar
    19    17    18   ar
    20     8     9   ar
    21    20    21   ar
    22    21    22   ar
    23    22    23   ar
    24    23    24    1
    25    24    25    1
    26    25    26    1
    27    26    27    1
    28    27    28   am
    29    28    29    1
    30    28    30    2
    31    27    31    1
    32    31    32    1
    33    23    19   ar
    34    32    24    1
    35     9     3   ar
    36    18    10   ar
    37    18    13   ar
    38     1     2    1
@<TRIPOS>MOLECULE
*****
 34 38 0 0 0
SMALL
GASTEIGER

@<TRIPOS>ATOM
      1 N         137.4854  139.3527  162.2733 N.pl3   1  UNL1       -0.2803
      2 H         136.5503  139.0474  162.2351 H       1  UNL1        0.1551
      3 C         138.1029  140.0286  161.0851 C.ar    1  UNL1        0.2208
      4 N         137.5115  139.8340  159.7204 N.ar    1  UNL1       -0.2111
      5 C         138.1290  140.5098  158.5321 C.ar    1  UNL1        0.1147
      6 C         139.3378  141.3803  158.7086 C.ar    1  UNL1        0.0946
      7 CL        139.9552  142.0561  157.5203 Cl      1  UNL1       -0.0790
      8 C         139.9291  141.5749  160.0734 C.ar    1  UNL1        0.0992
      9 N         139.3117  140.8990  161.2615 N.ar    1  UNL1       -0.2126
     10 C         141.1379  142.4454  160.2498 C.ar    1  UNL1        0.0572
     11 C         141.2869  143.8564  159.7632 C.ar    1  UNL1        0.1235
     12 N         142.6510  144.3407  160.1565 N.ar    1  UNL1       -0.1634
     13 N         143.3451  143.2290  160.8862 N.ar    1  UNL1       -0.2281
     14 C         144.7078  143.1320  161.5055 C.ar    1  UNL1        0.1004
     15 C         145.1353  141.8636  162.1825 C.ar    1  UNL1        0.0207
     16 C         144.2001  140.6922  162.2402 C.ar    1  UNL1        0.0031
     17 C         142.8374  140.7892  161.6208 C.ar    1  UNL1        0.0193
     18 C         142.4099  142.0576  160.9438 C.ar    1  UNL1        0.0858
     19 C         138.5635  140.1691  164.5791 C.ar    1  UNL1        0.0704
     20 C         138.2927  139.1421  163.5198 C.ar    1  UNL1        0.0850
     21 C         138.9710  137.8673  163.9260 C.ar    1  UNL1        0.1359
     22 N         139.6610  138.1065  165.2363 N.ar    1  UNL1       -0.1667
     23 N         139.4092  139.5292  165.6399 N.ar    1  UNL1       -0.2555
     24 C         139.9143  140.1949  166.8855 C.3     1  UNL1        0.1083
     25 C         141.1267  141.0760  166.8261 C.3     1  UNL1        0.0459
     26 C         141.6319  141.7418  168.0718 C.3     1  UNL1        0.0954
     27 N         140.9245  141.5263  169.3768 N.am    1  UNL1       -0.2794
     28 C         141.4296  142.1921  170.6225 C.2     1  UNL1        0.2261
     29 C         142.6421  143.0732  170.5631 C.3     1  UNL1        0.0948
     30 O         140.7223  141.9766  171.9276 O.2     1  UNL1       -0.2749
     31 C         139.7120  140.6451  169.4363 C.3     1  UNL1        0.0954
     32 C         139.2070  139.9795  168.1905 C.3     1  UNL1        0.0459
     33 C         139.0170  142.7051  164.2432 C.3     1  UNL1        0.0067
     34 C         138.0746  141.5871  164.5777 C.3     1  UNL1        0.0468
@<TRIPOS>BOND
     1    33    34    1
     2    34    19    1
     3    19    20   ar
     4    20     1    1
     5     1     3    1
     6     3     4   ar
     7     4     5   ar
     8     5     6   ar
     9     6     7    1
    10     6     8   ar
    11     8    10    1
    12    10    11   ar
    13    11    12   ar
    14    12    13   ar
    15    13    14   ar
    16    14    15   ar
    17    15    16   ar
    18    16    17   ar
    19    17    18   ar
    20     8     9   ar
    21    20    21   ar
    22    21    22   ar
    23    22    23   ar
    24    23    24    1
    25    24    25    1
    26    25    26    1
    27    26    27    1
    28    27    28   am
    29    28    29    1
    30    28    30    2
    31    27    31    1
    32    31    32    1
    33    23    19   ar
    34    32    24    1
    35     9     3   ar
    36    18    10   ar
    37    18    13   ar
    38     1     2    1
@<TRIPOS>MOLECULE
*****
 34 38 0 0 0
SMALL
GASTEIGER

@<TRIPOS>ATOM
      1 N         142.0619  137.4289  162.7855 N.pl3   1  UNL1       -0.2803
      2 H         142.4098  136.5414  163.0315 H       1  UNL1        0.1551
      3 C         142.4341  138.0415  161.4678 C.ar    1  UNL1        0.2208
      4 N         143.4858  139.1092  161.4075 N.ar    1  UNL1       -0.2111
      5 C         143.8581  139.7218  160.0899 C.ar    1  UNL1        0.1147
      6 C         143.1786  139.2665  158.8325 C.ar    1  UNL1        0.0946
      7 CL        143.5508  139.8790  157.5148 Cl      1  UNL1       -0.0790
      8 C         142.1268  138.1986  158.8928 C.ar    1  UNL1        0.0992
      9 N         141.7546  137.5862  160.2104 N.ar    1  UNL1       -0.2126
     10 C         141.4473  137.7433  157.6354 C.ar    1  UNL1        0.0572
     11 C         140.1247  138.2303  157.1220 C.ar    1  UNL1        0.1235
     12 N         139.8312  137.5091  155.8400 N.ar    1  UNL1       -0.1634
     13 N         140.9723  136.5764  155.5610 N.ar    1  UNL1       -0.2281
     14 C         141.2310  135.6140  154.4399 C.ar    1  UNL1        0.1004
     15 C         142.4885  134.7964  154.4285 C.ar    1  UNL1        0.0207
     16 C         143.4873  134.9412  155.5381 C.ar    1  UNL1        0.0031
     17 C         143.2287  135.9036  156.6592 C.ar    1  UNL1        0.0193
     18 C         141.9712  136.7212  156.6706 C.ar    1  UNL1        0.0858
     19 C         141.5963  138.9886  164.9059 C.ar    1  UNL1        0.0704
     20 C         141.1596  138.1685  163.7282 C.ar    1  UNL1        0.0850
     21 C         139.6619  138.2180  163.6588 C.ar    1  UNL1        0.1359
     22 N         139.1732  139.0685  164.7935 N.ar    1  UNL1       -0.1667
     23 N         140.3687  139.5448  165.5643 N.ar    1  UNL1       -0.2555
     24 C         140.3414  140.4230  166.7800 C.3     1  UNL1        0.1083
     25 C         140.4306  141.9129  166.6310 C.3     1  UNL1        0.0459
     26 C         140.4033  142.7913  167.8467 C.3     1  UNL1        0.0954
     27 N         140.2867  142.1795  169.2113 N.am    1  UNL1       -0.2794
     28 C         140.2594  143.0578  170.4271 C.2     1  UNL1        0.2261
     29 C         140.3487  144.5477  170.2781 C.3     1  UNL1        0.0948
     30 O         140.1428  142.4462  171.7918 O.2     1  UNL1       -0.2749
     31 C         140.1975  140.6896  169.3603 C.3     1  UNL1        0.0954
     32 C         140.2248  139.8114  168.1446 C.3     1  UNL1        0.0459
     33 C         143.6837  138.2181  166.2471 C.3     1  UNL1        0.0067
     34 C         143.0121  139.2129  165.3475 C.3     1  UNL1        0.0468
@<TRIPOS>BOND
     1    33    34    1
     2    34    19    1
     3    19    20   ar
     4    20     1    1
     5     1     3    1
     6     3     4   ar
     7     4     5   ar
     8     5     6   ar
     9     6     7    1
    10     6     8   ar
    11     8    10    1
    12    10    11   ar
    13    11    12   ar
    14    12    13   ar
    15    13    14   ar
    16    14    15   ar
    17    15    16   ar
    18    16    17   ar
    19    17    18   ar
    20     8     9   ar
    21    20    21   ar
    22    21    22   ar
    23    22    23   ar
    24    23    24    1
    25    24    25    1
    26    25    26    1
    27    26    27    1
    28    27    28   am
    29    28    29    1
    30    28    30    2
    31    27    31    1
    32    31    32    1
    33    23    19   ar
    34    32    24    1
    35     9     3   ar
    36    18    10   ar
    37    18    13   ar
    38     1     2    1
@<TRIPOS>MOLECULE
*****
 34 38 0 0 0
SMALL
GASTEIGER

@<TRIPOS>ATOM
      1 N         137.5351  139.7464  160.1765 N.pl3   1  UNL1       -0.2803
      2 H         136.5602  139.7815  160.0434 H       1  UNL1        0.1551
      3 C         138.4582  140.1806  159.0768 C.ar    1  UNL1        0.2208
      4 N         139.0187  139.1667  158.1240 N.ar    1  UNL1       -0.2111
      5 C         139.9418  139.6008  157.0243 C.ar    1  UNL1        0.1147
      6 C         140.3045  141.0489  156.8775 C.ar    1  UNL1        0.0946
      7 CL        141.2276  141.4831  155.7778 Cl      1  UNL1       -0.0790
      8 C         139.7439  142.0629  157.8303 C.ar    1  UNL1        0.0992
      9 N         138.8208  141.6287  158.9299 N.ar    1  UNL1       -0.2126
     10 C         140.1066  143.5109  157.6834 C.ar    1  UNL1        0.0572
     11 C         141.1846  144.2308  158.4382 C.ar    1  UNL1        0.1235
     12 N         141.1991  145.6581  157.9772 N.ar    1  UNL1       -0.1634
     13 N         140.1301  145.8204  156.9375 N.ar    1  UNL1       -0.2281
     14 C         139.6843  147.0051  156.1327 C.ar    1  UNL1        0.1004
     15 C         138.5633  146.8627  155.1463 C.ar    1  UNL1        0.0207
     16 C         137.8881  145.5356  154.9647 C.ar    1  UNL1        0.0031
     17 C         138.3339  144.3509  155.7696 C.ar    1  UNL1        0.0193
     18 C         139.4549  144.4933  156.7559 C.ar    1  UNL1        0.0858
     19 C         138.0017  139.9637  162.7995 C.ar    1  UNL1        0.0704
     20 C         138.0971  139.2588  161.4789 C.ar    1  UNL1        0.0850
     21 C         138.8533  137.9804  161.6893 C.ar    1  UNL1        0.1359
     22 N         139.2252  137.8954  163.1400 N.ar    1  UNL1       -0.1667
     23 N         138.6989  139.1211  163.8261 N.ar    1  UNL1       -0.2555
     24 C         138.8443  139.4470  165.2830 C.3     1  UNL1        0.1083
     25 C         139.8811  140.4342  165.7309 C.3     1  UNL1        0.0459
     26 C         140.0265  140.7601  167.1879 C.3     1  UNL1        0.0954
     27 N         139.1351  140.0988  168.1969 N.am    1  UNL1       -0.2794
     28 C         139.2806  140.4247  169.6539 C.2     1  UNL1        0.2261
     29 C         140.3173  141.4119  170.1017 C.3     1  UNL1        0.0948
     30 O         138.3892  139.7634  170.6629 O.2     1  UNL1       -0.2749
     31 C         138.0984  139.1115  167.7490 C.3     1  UNL1        0.0954
     32 C         137.9531  138.7857  166.2920 C.3     1  UNL1        0.0459
     33 C         137.9428  142.5475  162.5347 C.3     1  UNL1        0.0067
     34 C         137.3276  141.2800  163.0496 C.3     1  UNL1        0.0468
@<TRIPOS>BOND
     1    33    34    1
     2    34    19    1
     3    19    20   ar
     4    20     1    1
     5     1     3    1
     6     3     4   ar
     7     4     5   ar
     8     5     6   ar
     9     6     7    1
    10     6     8   ar
    11     8    10    1
    12    10    11   ar
    13    11    12   ar
    14    12    13   ar
    15    13    14   ar
    16    14    15   ar
    17    15    16   ar
    18    16    17   ar
    19    17    18   ar
    20     8     9   ar
    21    20    21   ar
    22    21    22   ar
    23    22    23   ar
    24    23    24    1
    25    24    25    1
    26    25    26    1
    27    26    27    1
    28    27    28   am
    29    28    29    1
    30    28    30    2
    31    27    31    1
    32    31    32    1
    33    23    19   ar
    34    32    24    1
    35     9     3   ar
    36    18    10   ar
    37    18    13   ar
    38     1     2    1
@<TRIPOS>MOLECULE
*****
 34 38 0 0 0
SMALL
GASTEIGER

@<TRIPOS>ATOM
      1 N         143.6581  137.6674  161.7100 N.pl3   1  UNL1       -0.2803
      2 H         144.3924  137.0402  161.9015 H       1  UNL1        0.1551
      3 C         143.4656  138.1945  160.3190 C.ar    1  UNL1        0.2208
      4 N         144.0115  139.5406  159.9448 N.ar    1  UNL1       -0.2111
      5 C         143.8190  140.0677  158.5537 C.ar    1  UNL1        0.1147
      6 C         143.0806  139.2487  157.5368 C.ar    1  UNL1        0.0946
      7 CL        142.8881  139.7759  156.1458 Cl      1  UNL1       -0.0790
      8 C         142.5347  137.9026  157.9110 C.ar    1  UNL1        0.0992
      9 N         142.7272  137.3755  159.3021 N.ar    1  UNL1       -0.2126
     10 C         141.7963  137.0836  156.8941 C.ar    1  UNL1        0.0572
     11 C         140.4526  137.4053  156.3102 C.ar    1  UNL1        0.1235
     12 N         140.0979  136.3196  155.3378 N.ar    1  UNL1       -0.1634
     13 N         141.2223  135.3270  155.3208 N.ar    1  UNL1       -0.2281
     14 C         141.4260  134.0542  154.5538 C.ar    1  UNL1        0.1004
     15 C         142.6793  133.2535  154.7486 C.ar    1  UNL1        0.0207
     16 C         143.7290  133.7257  155.7104 C.ar    1  UNL1        0.0031
     17 C         143.5254  134.9985  156.4775 C.ar    1  UNL1        0.0193
     18 C         142.2720  135.7991  156.2827 C.ar    1  UNL1        0.0858
     19 C         143.0743  139.0180  163.9417 C.ar    1  UNL1        0.0704
     20 C         142.7318  138.0957  162.8093 C.ar    1  UNL1        0.0850
     21 C         141.3003  137.6770  162.9693 C.ar    1  UNL1        0.1359
     22 N         140.7581  138.3405  164.2005 N.ar    1  UNL1       -0.1667
     23 N         141.8545  139.1693  164.8015 N.ar    1  UNL1       -0.2555
     24 C         141.7496  140.0029  166.0440 C.3     1  UNL1        0.1083
     25 C         140.8996  141.2389  166.0483 C.3     1  UNL1        0.0459
     26 C         140.7946  142.0726  167.2909 C.3     1  UNL1        0.0954
     27 N         141.5396  141.6702  168.5291 N.am    1  UNL1       -0.2794
     28 C         141.4346  142.5039  169.7717 C.2     1  UNL1        0.2261
     29 C         140.5847  143.7399  169.7761 C.3     1  UNL1        0.0948
     30 O         142.1795  142.1016  171.0100 O.2     1  UNL1       -0.2749
     31 C         142.3895  140.4343  168.5248 C.3     1  UNL1        0.0954
     32 C         142.4945  139.6007  167.2822 C.3     1  UNL1        0.0459
     33 C         144.5770  141.1367  163.8915 C.3     1  UNL1        0.0067
     34 C         144.4032  139.6738  164.1735 C.3     1  UNL1        0.0468
@<TRIPOS>BOND
     1    33    34    1
     2    34    19    1
     3    19    20   ar
     4    20     1    1
     5     1     3    1
     6     3     4   ar
     7     4     5   ar
     8     5     6   ar
     9     6     7    1
    10     6     8   ar
    11     8    10    1
    12    10    11   ar
    13    11    12   ar
    14    12    13   ar
    15    13    14   ar
    16    14    15   ar
    17    15    16   ar
    18    16    17   ar
    19    17    18   ar
    20     8     9   ar
    21    20    21   ar
    22    21    22   ar
    23    22    23   ar
    24    23    24    1
    25    24    25    1
    26    25    26    1
    27    26    27    1
    28    27    28   am
    29    28    29    1
    30    28    30    2
    31    27    31    1
    32    31    32    1
    33    23    19   ar
    34    32    24    1
    35     9     3   ar
    36    18    10   ar
    37    18    13   ar
    38     1     2    1
@<TRIPOS>MOLECULE
*****
 34 38 0 0 0
SMALL
GASTEIGER

@<TRIPOS>ATOM
      1 N         137.4060  139.3318  161.8679 N.pl3   1  UNL1       -0.2803
      2 H         136.6952  138.6687  162.0235 H       1  UNL1        0.1551
      3 C         138.0397  139.4481  160.5133 C.ar    1  UNL1        0.2208
      4 N         139.2975  138.6909  160.2062 N.ar    1  UNL1       -0.2111
      5 C         139.9312  138.8071  158.8516 C.ar    1  UNL1        0.1147
      6 C         139.3070  139.6806  157.8041 C.ar    1  UNL1        0.0946
      7 CL        139.9406  139.7969  156.4495 Cl      1  UNL1       -0.0790
      8 C         138.0490  140.4379  158.1112 C.ar    1  UNL1        0.0992
      9 N         137.4154  140.3216  159.4657 N.ar    1  UNL1       -0.2126
     10 C         137.4248  141.3114  157.0636 C.ar    1  UNL1        0.0572
     11 C         136.1835  141.0001  156.2812 C.ar    1  UNL1        0.1235
     12 N         135.9238  142.1459  155.3486 N.ar    1  UNL1       -0.1634
     13 N         137.0047  143.1654  155.5547 N.ar    1  UNL1       -0.2281
     14 C         137.2640  144.4967  154.9142 C.ar    1  UNL1        0.1004
     15 C         138.4509  145.3123  155.3336 C.ar    1  UNL1        0.0207
     16 C         139.3786  144.7965  156.3935 C.ar    1  UNL1        0.0031
     17 C         139.1193  143.4652  157.0341 C.ar    1  UNL1        0.0193
     18 C         137.9323  142.6497  156.6147 C.ar    1  UNL1        0.0858
     19 C         138.8460  139.8712  164.0544 C.ar    1  UNL1        0.0704
     20 C         137.8553  140.2259  162.9853 C.ar    1  UNL1        0.0850
     21 C         137.3928  141.6317  163.2299 C.ar    1  UNL1        0.1359
     22 N         138.0976  142.1459  164.4502 N.ar    1  UNL1       -0.1667
     23 N         138.9957  141.0578  164.9597 N.ar    1  UNL1       -0.2555
     24 C         139.8871  141.1416  166.1632 C.3     1  UNL1        0.1083
     25 C         141.0769  142.0550  166.1532 C.3     1  UNL1        0.0459
     26 C         141.9683  142.1388  167.3567 C.3     1  UNL1        0.0954
     27 N         141.6697  141.3092  168.5702 N.am    1  UNL1       -0.2794
     28 C         142.5612  141.3931  169.7738 C.2     1  UNL1        0.2261
     29 C         143.7509  142.3064  169.7637 C.3     1  UNL1        0.0948
     30 O         142.2627  140.5635  170.9874 O.2     1  UNL1       -0.2749
     31 C         140.4800  140.3958  168.5803 C.3     1  UNL1        0.0954
     32 C         139.5886  140.3121  167.3767 C.3     1  UNL1        0.0459
     33 C         138.9794  137.4757  165.0512 C.3     1  UNL1        0.0067
     34 C         139.5612  138.5602  164.1937 C.3     1  UNL1        0.0468
@<TRIPOS>BOND
     1    33    34    1
     2    34    19    1
     3    19    20   ar
     4    20     1    1
     5     1     3    1
     6     3     4   ar
     7     4     5   ar
     8     5     6   ar
     9     6     7    1
    10     6     8   ar
    11     8    10    1
    12    10    11   ar
    13    11    12   ar
    14    12    13   ar
    15    13    14   ar
    16    14    15   ar
    17    15    16   ar
    18    16    17   ar
    19    17    18   ar
    20     8     9   ar
    21    20    21   ar
    22    21    22   ar
    23    22    23   ar
    24    23    24    1
    25    24    25    1
    26    25    26    1
    27    26    27    1
    28    27    28   am
    29    28    29    1
    30    28    30    2
    31    27    31    1
    32    31    32    1
    33    23    19   ar
    34    32    24    1
    35     9     3   ar
    36    18    10   ar
    37    18    13   ar
    38     1     2    1
