@<TRIPOS>MOLECULE
*****
 32 37 0 0 0
SMALL
GASTEIGER

@<TRIPOS>ATOM
      1 O         143.4730  140.6930  159.9762 O.2     1  UNL1       -0.2700
      2 C         142.8996  140.6289  161.3608 C.2     1  UNL1        0.2504
      3 N         143.8808  141.4013  162.1919 N.am    1  UNL1       -0.3003
      4 C         144.3629  141.9660  163.4952 C.3     1  UNL1        0.0974
      5 C         145.5572  142.7798  163.8967 C.3     1  UNL1        0.0234
      6 C         145.3747  142.3717  162.4649 C.3     1  UNL1        0.0234
      7 C         144.2352  142.1938  164.9723 C.3     1  UNL1        0.2247
      8 O         143.5272  142.0324  166.2848 O.3     1  UNL1       -0.4587
      9 C         142.4009  141.5188  167.1320 C.ar    1  UNL1        0.2224
     10 N         143.0680  142.1702  168.3069 N.ar    1  UNL1       -0.2080
     11 C         142.4488  142.0736  169.6696 C.ar    1  UNL1        0.1316
     12 C         141.1623  141.3255  169.8575 C.ar    1  UNL1        0.1592
     13 F         140.5429  141.2288  171.2202 F       1  UNL1       -0.2025
     14 C         140.4951  140.6740  168.6825 C.ar    1  UNL1        0.0332
     15 C         141.1144  140.7708  167.3197 C.ar    1  UNL1        0.0525
     16 C         139.9624  139.9595  166.8052 C.3     1  UNL1        0.1169
     17 C         139.4358  139.9281  168.2094 C.3     1  UNL1        0.0934
     18 N         138.1558  139.2082  168.5144 N.3     1  UNL1       -0.2944
     19 C         137.4022  138.5197  167.4153 C.3     1  UNL1        0.0904
     20 C         137.9287  138.5510  166.0111 C.3     1  UNL1        0.1095
     21 N         139.2088  139.2709  165.7060 N.pl3   1  UNL1       -0.2881
     22 C         139.0264  138.8628  164.2742 C.ar    1  UNL1        0.1352
     23 C         138.2077  138.0260  162.6518 C.ar    1  UNL1        0.0551
     24 C         138.4752  137.8855  161.1825 C.ar    1  UNL1        0.1050
     25 N         139.6991  138.5094  160.5800 N.ar    1  UNL1       -0.2104
     26 N         140.5075  138.7470  159.3391 N.ar    1  UNL1       -0.1619
     27 C         141.7095  139.5607  159.7177 C.ar    1  UNL1        0.1281
     28 C         141.6438  139.8259  161.1925 C.ar    1  UNL1        0.1099
     29 C         140.4014  139.1762  161.7255 C.ar    1  UNL1        0.1710
     30 N         139.4567  138.8286  162.8377 N.ar    1  UNL1       -0.2116
     31 H         144.5654  141.6860  161.5441 H       1  UNL1        0.1498
     32 H         137.5211  139.8955  168.9208 H       1  UNL1        0.1234
@<TRIPOS>BOND
     1     1     2    2
     2     2     3   am
     3     3     4    1
     4     4     5    1
     5     5     6    1
     6     4     7    1
     7     7     8    1
     8     8     9    1
     9     9    10   ar
    10    10    11   ar
    11    11    12   ar
    12    12    13    1
    13    12    14   ar
    14    14    15   ar
    15    15    16    1
    16    16    17    1
    17    17    18    1
    18    18    19    1
    19    19    20    1
    20    20    21    1
    21    21    22    1
    22    22    23   ar
    23    23    24   ar
    24    24    25   ar
    25    25    26   ar
    26    26    27   ar
    27    27    28   ar
    28    28    29   ar
    29    29    30   ar
    30    28     2    1
    31     6     4    1
    32    15     9   ar
    33    21    16    1
    34    30    22   ar
    35    29    25   ar
    36     3    31    1
    37    18    32    1
@<TRIPOS>MOLECULE
*****
 32 37 0 0 0
SMALL
GASTEIGER

@<TRIPOS>ATOM
      1 O         142.4900  140.6841  165.8857 O.2     1  UNL1       -0.2700
      2 C         141.9753  141.1217  164.5464 C.2     1  UNL1        0.2504
      3 N         142.7210  142.3944  164.2737 N.am    1  UNL1       -0.3003
      4 C         143.0495  143.5850  163.4225 C.3     1  UNL1        0.0974
      5 C         143.9828  144.7487  163.5794 C.3     1  UNL1        0.0234
      6 C         143.8980  143.7052  164.6535 C.3     1  UNL1        0.0234
      7 C         142.8856  144.4207  162.1877 C.3     1  UNL1        0.2247
      8 O         142.2669  144.7102  160.8523 O.3     1  UNL1       -0.4587
      9 C         141.3350  144.3871  159.7221 C.ar    1  UNL1        0.2224
     10 N         141.8162  145.6376  159.0480 N.ar    1  UNL1       -0.2080
     11 C         141.2660  146.0266  157.7079 C.ar    1  UNL1        0.1316
     12 C         140.2345  145.1649  157.0418 C.ar    1  UNL1        0.1592
     13 F         139.6843  145.5537  155.7017 F       1  UNL1       -0.2025
     14 C         139.7533  143.9143  157.7160 C.ar    1  UNL1        0.0332
     15 C         140.3036  143.5254  159.0561 C.ar    1  UNL1        0.0525
     16 C         139.4087  142.3225  159.0068 C.3     1  UNL1        0.1169
     17 C         138.9306  142.8083  157.6706 C.3     1  UNL1        0.0934
     18 N         137.8993  142.0256  156.9133 N.3     1  UNL1       -0.2944
     19 C         137.3461  140.7571  157.4921 C.3     1  UNL1        0.0904
     20 C         137.8243  140.2713  158.8282 C.3     1  UNL1        0.1095
     21 N         138.8556  141.0540  159.5856 N.pl3   1  UNL1       -0.2881
     22 C         138.7708  140.0106  160.6598 C.ar    1  UNL1        0.1352
     23 C         138.1880  138.3619  161.6319 C.ar    1  UNL1        0.0551
     24 C         138.4628  137.6377  162.9164 C.ar    1  UNL1        0.1050
     25 N         139.4620  138.1897  163.8896 N.ar    1  UNL1       -0.2104
     26 N         140.1576  138.0219  165.2079 N.ar    1  UNL1       -0.1619
     27 C         141.0978  139.1769  165.3862 C.ar    1  UNL1        0.1281
     28 C         140.9834  140.0585  164.1780 C.ar    1  UNL1        0.1099
     29 C         139.9724  139.4484  163.2531 C.ar    1  UNL1        0.1710
     30 N         139.1739  139.4311  161.9834 N.ar    1  UNL1       -0.2116
     31 H         143.2930  142.5069  165.0670 H       1  UNL1        0.1498
     32 H         138.3158  141.7821  156.0146 H       1  UNL1        0.1234
@<TRIPOS>BOND
     1     1     2    2
     2     2     3   am
     3     3     4    1
     4     4     5    1
     5     5     6    1
     6     4     7    1
     7     7     8    1
     8     8     9    1
     9     9    10   ar
    10    10    11   ar
    11    11    12   ar
    12    12    13    1
    13    12    14   ar
    14    14    15   ar
    15    15    16    1
    16    16    17    1
    17    17    18    1
    18    18    19    1
    19    19    20    1
    20    20    21    1
    21    21    22    1
    22    22    23   ar
    23    23    24   ar
    24    24    25   ar
    25    25    26   ar
    26    26    27   ar
    27    27    28   ar
    28    28    29   ar
    29    29    30   ar
    30    28     2    1
    31     6     4    1
    32    15     9   ar
    33    21    16    1
    34    30    22   ar
    35    29    25   ar
    36     3    31    1
    37    18    32    1
@<TRIPOS>MOLECULE
*****
 32 37 0 0 0
SMALL
GASTEIGER

@<TRIPOS>ATOM
      1 O         141.2287  140.7111  164.7717 O.2     1  UNL1       -0.2700
      2 C         141.5926  141.1022  163.3700 C.2     1  UNL1        0.2504
      3 N         142.3924  139.9366  162.8683 N.am    1  UNL1       -0.3003
      4 C         143.1831  139.2251  161.8106 C.3     1  UNL1        0.0974
      5 C         143.8854  137.9010  161.7527 C.3     1  UNL1        0.0234
      6 C         143.1689  138.3158  163.0035 C.3     1  UNL1        0.0234
      7 C         143.7837  139.1309  160.4394 C.3     1  UNL1        0.2247
      8 O         144.0566  139.6755  159.0686 O.3     1  UNL1       -0.4587
      9 C         143.9392  140.7341  158.0123 C.ar    1  UNL1        0.2224
     10 N         144.7541  139.8470  157.1185 N.ar    1  UNL1       -0.2080
     11 C         145.0882  140.2899  155.7249 C.ar    1  UNL1        0.1316
     12 C         144.6075  141.6200  155.2252 C.ar    1  UNL1        0.1592
     13 F         144.9416  142.0631  153.8316 F       1  UNL1       -0.2025
     14 C         143.7926  142.5072  156.1191 C.ar    1  UNL1        0.0332
     15 C         143.4585  142.0641  157.5127 C.ar    1  UNL1        0.0525
     16 C         142.7246  143.3611  157.6839 C.3     1  UNL1        0.1169
     17 C         143.1178  143.6996  156.2765 C.3     1  UNL1        0.0934
     18 N         142.6920  145.0047  155.6722 N.3     1  UNL1       -0.2944
     19 C         141.8730  145.9714  156.4752 C.3     1  UNL1        0.0904
     20 C         141.4797  145.6329  157.8825 C.3     1  UNL1        0.1095
     21 N         141.9055  144.3277  158.4869 N.pl3   1  UNL1       -0.2881
     22 C         141.1890  144.7426  159.7377 C.ar    1  UNL1        0.1352
     23 C         140.1088  145.8591  160.9983 C.ar    1  UNL1        0.0551
     24 C         139.5731  145.8043  162.3983 C.ar    1  UNL1        0.1050
     25 N         139.8420  144.6047  163.2578 N.ar    1  UNL1       -0.2104
     26 N         139.6449  143.9430  164.5895 N.ar    1  UNL1       -0.1619
     27 C         140.3403  142.6144  164.5542 C.ar    1  UNL1        0.1281
     28 C         140.9671  142.4550  163.2009 C.ar    1  UNL1        0.1099
     29 C         140.6592  143.6850  162.3996 C.ar    1  UNL1        0.1710
     30 N         140.7392  144.5106  161.1498 N.ar    1  UNL1       -0.2116
     31 H         142.4047  139.3137  163.6306 H       1  UNL1        0.1498
     32 H         142.1488  144.7799  154.8387 H       1  UNL1        0.1234
@<TRIPOS>BOND
     1     1     2    2
     2     2     3   am
     3     3     4    1
     4     4     5    1
     5     5     6    1
     6     4     7    1
     7     7     8    1
     8     8     9    1
     9     9    10   ar
    10    10    11   ar
    11    11    12   ar
    12    12    13    1
    13    12    14   ar
    14    14    15   ar
    15    15    16    1
    16    16    17    1
    17    17    18    1
    18    18    19    1
    19    19    20    1
    20    20    21    1
    21    21    22    1
    22    22    23   ar
    23    23    24   ar
    24    24    25   ar
    25    25    26   ar
    26    26    27   ar
    27    27    28   ar
    28    28    29   ar
    29    29    30   ar
    30    28     2    1
    31     6     4    1
    32    15     9   ar
    33    21    16    1
    34    30    22   ar
    35    29    25   ar
    36     3    31    1
    37    18    32    1
@<TRIPOS>MOLECULE
*****
 32 37 0 0 0
SMALL
GASTEIGER

@<TRIPOS>ATOM
      1 O         141.3231  139.4022  165.7132 O.2     1  UNL1       -0.2700
      2 C         140.9631  140.0511  164.4096 C.2     1  UNL1        0.2504
      3 N         139.9593  139.1134  163.8070 N.am    1  UNL1       -0.3003
      4 C         139.0131  138.7010  162.7186 C.3     1  UNL1        0.0974
      5 C         138.1000  137.5268  162.5252 C.3     1  UNL1        0.0234
      6 C         138.9332  137.6323  163.7680 C.3     1  UNL1        0.0234
      7 C         138.3412  138.9086  161.3936 C.3     1  UNL1        0.2247
      8 O         138.0977  139.6884  160.1356 O.3     1  UNL1       -0.4587
      9 C         138.3383  140.8619  159.2327 C.ar    1  UNL1        0.2224
     10 N         137.3471  140.2572  158.2831 N.ar    1  UNL1       -0.2080
     11 C         137.0253  140.9508  156.9926 C.ar    1  UNL1        0.1316
     12 C         137.6948  142.2491  156.6518 C.ar    1  UNL1        0.1592
     13 F         137.3731  142.9429  155.3613 F       1  UNL1       -0.2025
     14 C         138.6861  142.8538  157.6015 C.ar    1  UNL1        0.0332
     15 C         139.0078  142.1601  158.8919 C.ar    1  UNL1        0.0525
     16 C         139.9529  143.2859  159.1912 C.3     1  UNL1        0.1169
     17 C         139.5551  143.8889  157.8766 C.3     1  UNL1        0.0934
     18 N         140.1614  145.1870  157.4328 N.3     1  UNL1       -0.2944
     19 C         141.1656  145.8822  158.3036 C.3     1  UNL1        0.0904
     20 C         141.5635  145.2793  159.6182 C.3     1  UNL1        0.1095
     21 N         140.9571  143.9811  160.0620 N.pl3   1  UNL1       -0.2881
     22 C         141.7903  144.0865  161.3048 C.ar    1  UNL1        0.1352
     23 C         143.0981  144.8187  162.6301 C.ar    1  UNL1        0.0551
     24 C         143.6828  144.4715  163.9670 C.ar    1  UNL1        0.1050
     25 N         143.2604  143.2136  164.6665 N.ar    1  UNL1       -0.2104
     26 N         143.4081  142.3371  165.8748 N.ar    1  UNL1       -0.1619
     27 C         142.5021  141.1541  165.7027 C.ar    1  UNL1        0.1281
     28 C         141.7946  141.2994  164.3881 C.ar    1  UNL1        0.1099
     29 C         142.2632  142.5722  163.7477 C.ar    1  UNL1        0.1710
     30 N         142.2617  143.5781  162.6349 N.ar    1  UNL1       -0.2116
     31 H         139.8803  138.3930  164.4733 H       1  UNL1        0.1498
     32 H         139.3902  145.8399  157.2938 H       1  UNL1        0.1234
@<TRIPOS>BOND
     1     1     2    2
     2     2     3   am
     3     3     4    1
     4     4     5    1
     5     5     6    1
     6     4     7    1
     7     7     8    1
     8     8     9    1
     9     9    10   ar
    10    10    11   ar
    11    11    12   ar
    12    12    13    1
    13    12    14   ar
    14    14    15   ar
    15    15    16    1
    16    16    17    1
    17    17    18    1
    18    18    19    1
    19    19    20    1
    20    20    21    1
    21    21    22    1
    22    22    23   ar
    23    23    24   ar
    24    24    25   ar
    25    25    26   ar
    26    26    27   ar
    27    27    28   ar
    28    28    29   ar
    29    29    30   ar
    30    28     2    1
    31     6     4    1
    32    15     9   ar
    33    21    16    1
    34    30    22   ar
    35    29    25   ar
    36     3    31    1
    37    18    32    1
@<TRIPOS>MOLECULE
*****
 32 37 0 0 0
SMALL
GASTEIGER

@<TRIPOS>ATOM
      1 O         140.2408  142.6747  165.2236 O.2     1  UNL1       -0.2700
      2 C         140.8168  142.2378  163.9093 C.2     1  UNL1        0.2504
      3 N         141.9582  143.1848  163.6850 N.am    1  UNL1       -0.3003
      4 C         143.1139  143.7057  162.8831 C.3     1  UNL1        0.0974
      5 C         144.0978  144.8204  163.0815 C.3     1  UNL1        0.0234
      6 C         143.0367  144.5647  164.1104 C.3     1  UNL1        0.0234
      7 C         144.0190  143.6813  161.6871 C.3     1  UNL1        0.2247
      8 O         144.4661  143.1171  160.3712 O.3     1  UNL1       -0.4587
      9 C         144.3529  142.1424  159.2366 C.ar    1  UNL1        0.2224
     10 N         145.5344  142.8242  158.6128 N.ar    1  UNL1       -0.2080
     11 C         146.0682  142.3442  157.2958 C.ar    1  UNL1        0.1316
     12 C         145.4206  141.1822  156.6027 C.ar    1  UNL1        0.1592
     13 F         145.9545  140.7021  155.2856 F       1  UNL1       -0.2025
     14 C         144.2391  140.5003  157.2265 C.ar    1  UNL1        0.0332
     15 C         143.7053  140.9805  158.5435 C.ar    1  UNL1        0.0525
     16 C         142.6716  139.8974  158.4505 C.3     1  UNL1        0.1169
     17 C         143.2888  139.5046  157.1410 C.3     1  UNL1        0.0934
     18 N         142.7229  138.3558  156.3600 N.3     1  UNL1       -0.2944
     19 C         141.5400  137.5999  156.8884 C.3     1  UNL1        0.0904
     20 C         140.9229  137.9927  158.1979 C.3     1  UNL1        0.1095
     21 N         141.4887  139.1415  158.9789 N.pl3   1  UNL1       -0.2881
     22 C         140.4275  138.8858  160.0078 C.ar    1  UNL1        0.1352
     23 C         138.8577  138.0379  160.9130 C.ar    1  UNL1        0.0551
     24 C         138.0418  138.1904  162.1624 C.ar    1  UNL1        0.1050
     25 N         138.3763  139.2694  163.1494 N.ar    1  UNL1       -0.2104
     26 N         138.0369  139.9296  164.4528 N.ar    1  UNL1       -0.1619
     27 C         139.0102  141.0497  164.6722 C.ar    1  UNL1        0.1281
     28 C         139.9510  141.0817  163.5044 C.ar    1  UNL1        0.1099
     29 C         139.5592  139.9815  162.5633 C.ar    1  UNL1        0.1710
     30 N         139.7312  139.1889  161.3013 N.ar    1  UNL1       -0.2116
     31 H         141.9388  143.7690  164.4772 H       1  UNL1        0.1498
     32 H         143.4770  137.6788  156.2439 H       1  UNL1        0.1234
@<TRIPOS>BOND
     1     1     2    2
     2     2     3   am
     3     3     4    1
     4     4     5    1
     5     5     6    1
     6     4     7    1
     7     7     8    1
     8     8     9    1
     9     9    10   ar
    10    10    11   ar
    11    11    12   ar
    12    12    13    1
    13    12    14   ar
    14    14    15   ar
    15    15    16    1
    16    16    17    1
    17    17    18    1
    18    18    19    1
    19    19    20    1
    20    20    21    1
    21    21    22    1
    22    22    23   ar
    23    23    24   ar
    24    24    25   ar
    25    25    26   ar
    26    26    27   ar
    27    27    28   ar
    28    28    29   ar
    29    29    30   ar
    30    28     2    1
    31     6     4    1
    32    15     9   ar
    33    21    16    1
    34    30    22   ar
    35    29    25   ar
    36     3    31    1
    37    18    32    1
@<TRIPOS>MOLECULE
*****
 32 37 0 0 0
SMALL
GASTEIGER

@<TRIPOS>ATOM
      1 O         139.6900  140.3655  165.3763 O.2     1  UNL1       -0.2700
      2 C         140.1393  140.9495  164.0697 C.2     1  UNL1        0.2504
      3 N         139.2518  142.1448  163.8866 N.am    1  UNL1       -0.3003
      4 C         138.7826  143.3458  163.1201 C.3     1  UNL1        0.0974
      5 C         137.7249  144.3824  163.3582 C.3     1  UNL1        0.0234
      6 C         137.9373  143.2842  164.3577 C.3     1  UNL1        0.0234
      7 C         138.8393  144.2773  161.9457 C.3     1  UNL1        0.2247
      8 O         139.4089  144.7260  160.6326 O.3     1  UNL1       -0.4587
      9 C         140.3609  144.5891  159.4815 C.ar    1  UNL1        0.2224
     10 N         139.7348  145.8200  158.8960 N.ar    1  UNL1       -0.2080
     11 C         140.2250  146.3597  157.5852 C.ar    1  UNL1        0.1316
     12 C         141.3413  145.6685  156.8598 C.ar    1  UNL1        0.1592
     13 F         141.8316  146.2082  155.5490 F       1  UNL1       -0.2025
     14 C         141.9674  144.4376  157.4454 C.ar    1  UNL1        0.0332
     15 C         141.4771  143.8979  158.7562 C.ar    1  UNL1        0.0525
     16 C         142.5020  142.8107  158.6227 C.3     1  UNL1        0.1169
     17 C         142.9097  143.4380  157.3226 C.3     1  UNL1        0.0934
     18 N         144.0160  142.8313  156.5116 N.3     1  UNL1       -0.2944
     19 C         144.7147  141.5973  157.0006 C.3     1  UNL1        0.0904
     20 C         144.3070  140.9700  158.3006 C.3     1  UNL1        0.1095
     21 N         143.2007  141.5767  159.1118 N.pl3   1  UNL1       -0.2881
     22 C         143.4131  140.4786  160.1112 C.ar    1  UNL1        0.1352
     23 C         144.1880  138.8442  160.9663 C.ar    1  UNL1        0.0551
     24 C         144.0089  138.0073  162.1981 C.ar    1  UNL1        0.1050
     25 N         142.9626  138.3742  163.2085 N.ar    1  UNL1       -0.2104
     26 N         142.3027  138.0385  164.5130 N.ar    1  UNL1       -0.1619
     27 C         141.2393  139.0642  164.7719 C.ar    1  UNL1        0.1281
     28 C         141.2419  140.0337  163.6274 C.ar    1  UNL1        0.1099
     29 C         142.3070  139.6073  162.6612 C.ar    1  UNL1        0.1710
     30 N         143.0905  139.7678  161.3922 N.ar    1  UNL1       -0.2116
     31 H         138.6780  142.1370  164.6866 H       1  UNL1        0.1498
     32 H         144.7307  143.5510  156.4035 H       1  UNL1        0.1234
@<TRIPOS>BOND
     1     1     2    2
     2     2     3   am
     3     3     4    1
     4     4     5    1
     5     5     6    1
     6     4     7    1
     7     7     8    1
     8     8     9    1
     9     9    10   ar
    10    10    11   ar
    11    11    12   ar
    12    12    13    1
    13    12    14   ar
    14    14    15   ar
    15    15    16    1
    16    16    17    1
    17    17    18    1
    18    18    19    1
    19    19    20    1
    20    20    21    1
    21    21    22    1
    22    22    23   ar
    23    23    24   ar
    24    24    25   ar
    25    25    26   ar
    26    26    27   ar
    27    27    28   ar
    28    28    29   ar
    29    29    30   ar
    30    28     2    1
    31     6     4    1
    32    15     9   ar
    33    21    16    1
    34    30    22   ar
    35    29    25   ar
    36     3    31    1
    37    18    32    1
@<TRIPOS>MOLECULE
*****
 32 37 0 0 0
SMALL
GASTEIGER

@<TRIPOS>ATOM
      1 O         139.6257  141.3728  165.6913 O.2     1  UNL1       -0.2700
      2 C         140.0715  141.2655  164.2631 C.2     1  UNL1        0.2504
      3 N         140.4087  139.8130  164.1004 N.am    1  UNL1       -0.3003
      4 C         140.8821  138.6418  163.2915 C.3     1  UNL1        0.0974
      5 C         141.0829  137.1857  163.5905 C.3     1  UNL1        0.0234
      6 C         140.5812  138.1088  164.6610 C.3     1  UNL1        0.0234
      7 C         141.3831  138.0204  162.0216 C.3     1  UNL1        0.2247
      8 O         141.7971  138.0909  160.5816 O.3     1  UNL1       -0.4587
      9 C         142.0290  138.8374  159.3013 C.ar    1  UNL1        0.2224
     10 N         142.4680  137.5380  158.6940 N.ar    1  UNL1       -0.2080
     11 C         142.9039  137.4899  157.2596 C.ar    1  UNL1        0.1316
     12 C         142.9008  138.7412  156.4324 C.ar    1  UNL1        0.1592
     13 F         143.3366  138.6931  154.9979 F       1  UNL1       -0.2025
     14 C         142.4618  140.0406  157.0397 C.ar    1  UNL1        0.0332
     15 C         142.0259  140.0887  158.4742 C.ar    1  UNL1        0.0525
     16 C         141.7885  141.5582  158.2896 C.3     1  UNL1        0.1169
     17 C         142.2435  141.3918  156.8700 C.3     1  UNL1        0.0934
     18 N         142.2810  142.5764  155.9507 N.3     1  UNL1       -0.2944
     19 C         141.8635  143.9275  156.4510 C.3     1  UNL1        0.0904
     20 C         141.4086  144.0940  157.8705 C.3     1  UNL1        0.1095
     21 N         141.3710  142.9093  158.7899 N.pl3   1  UNL1       -0.2881
     22 C         140.8692  143.8324  159.8604 C.ar    1  UNL1        0.1352
     23 C         140.2685  145.5193  160.7528 C.ar    1  UNL1        0.0551
     24 C         139.7775  145.9902  162.0896 C.ar    1  UNL1        0.1050
     25 N         139.6348  145.0165  163.2217 N.ar    1  UNL1       -0.2104
     26 N         139.2507  144.8042  164.6561 N.ar    1  UNL1       -0.1619
     27 C         139.4441  143.3519  164.9776 C.ar    1  UNL1        0.1281
     28 C         139.9476  142.6667  163.7420 C.ar    1  UNL1        0.1099
     29 C         140.0655  143.6954  162.6568 C.ar    1  UNL1        0.1710
     30 N         140.3981  144.1161  161.2559 N.ar    1  UNL1       -0.2116
     31 H         140.2221  139.4272  164.9867 H       1  UNL1        0.1498
     32 H         141.6754  142.3551  155.1603 H       1  UNL1        0.1234
@<TRIPOS>BOND
     1     1     2    2
     2     2     3   am
     3     3     4    1
     4     4     5    1
     5     5     6    1
     6     4     7    1
     7     7     8    1
     8     8     9    1
     9     9    10   ar
    10    10    11   ar
    11    11    12   ar
    12    12    13    1
    13    12    14   ar
    14    14    15   ar
    15    15    16    1
    16    16    17    1
    17    17    18    1
    18    18    19    1
    19    19    20    1
    20    20    21    1
    21    21    22    1
    22    22    23   ar
    23    23    24   ar
    24    24    25   ar
    25    25    26   ar
    26    26    27   ar
    27    27    28   ar
    28    28    29   ar
    29    29    30   ar
    30    28     2    1
    31     6     4    1
    32    15     9   ar
    33    21    16    1
    34    30    22   ar
    35    29    25   ar
    36     3    31    1
    37    18    32    1
@<TRIPOS>MOLECULE
*****
 32 37 0 0 0
SMALL
GASTEIGER

@<TRIPOS>ATOM
      1 O         141.2571  140.7639  169.1168 O.2     1  UNL1       -0.2700
      2 C         141.0605  140.8811  167.6343 C.2     1  UNL1        0.2504
      3 N         139.8201  140.0794  167.3722 N.am    1  UNL1       -0.3003
      4 C         138.7697  139.5174  166.4607 C.3     1  UNL1        0.0974
      5 C         137.5605  138.6562  166.6751 C.3     1  UNL1        0.0234
      6 C         138.4205  139.0452  167.8409 C.3     1  UNL1        0.0234
      7 C         138.1501  139.3238  165.1084 C.3     1  UNL1        0.2247
      8 O         138.1031  139.5431  163.6253 O.3     1  UNL1       -0.4587
      9 C         138.6395  140.1250  162.3510 C.ar    1  UNL1        0.2224
     10 N         137.4957  139.4653  161.6394 N.ar    1  UNL1       -0.2080
     11 C         137.3487  139.6167  160.1543 C.ar    1  UNL1        0.1316
     12 C         138.3456  140.4278  159.3808 C.ar    1  UNL1        0.1592
     13 F         138.1987  140.5793  157.8958 F       1  UNL1       -0.2025
     14 C         139.4895  141.0875  160.0925 C.ar    1  UNL1        0.0332
     15 C         139.6364  140.9360  161.5776 C.ar    1  UNL1        0.0525
     16 C         140.8655  141.7906  161.4820 C.3     1  UNL1        0.1169
     17 C         140.6195  141.8733  160.0046 C.3     1  UNL1        0.0934
     18 N         141.5532  142.6581  159.1317 N.3     1  UNL1       -0.2944
     19 C         142.7329  143.3604  159.7361 C.3     1  UNL1        0.0904
     20 C         142.9788  143.2778  161.2134 C.3     1  UNL1        0.1095
     21 N         142.0451  142.4929  162.0864 N.pl3   1  UNL1       -0.2881
     22 C         142.9051  142.8820  163.2522 C.ar    1  UNL1        0.1352
     23 C         144.3977  143.7254  164.2835 C.ar    1  UNL1        0.0551
     24 C         144.8950  143.8254  165.6951 C.ar    1  UNL1        0.1050
     25 N         144.1554  143.1334  166.8016 N.ar    1  UNL1       -0.2104
     26 N         144.0822  142.8346  168.2697 N.ar    1  UNL1       -0.1619
     27 C         142.8778  141.9727  168.5078 C.ar    1  UNL1        0.1281
     28 C         142.2068  141.7388  167.1868 C.ar    1  UNL1        0.1099
     29 C         142.9963  142.4561  166.1324 C.ar    1  UNL1        0.1710
     30 N         143.2484  142.8687  164.7124 N.ar    1  UNL1       -0.2116
     31 H         139.5595  139.7507  168.2629 H       1  UNL1        0.1498
     32 H         140.9919  143.3719  158.6671 H       1  UNL1        0.1234
@<TRIPOS>BOND
     1     1     2    2
     2     2     3   am
     3     3     4    1
     4     4     5    1
     5     5     6    1
     6     4     7    1
     7     7     8    1
     8     8     9    1
     9     9    10   ar
    10    10    11   ar
    11    11    12   ar
    12    12    13    1
    13    12    14   ar
    14    14    15   ar
    15    15    16    1
    16    16    17    1
    17    17    18    1
    18    18    19    1
    19    19    20    1
    20    20    21    1
    21    21    22    1
    22    22    23   ar
    23    23    24   ar
    24    24    25   ar
    25    25    26   ar
    26    26    27   ar
    27    27    28   ar
    28    28    29   ar
    29    29    30   ar
    30    28     2    1
    31     6     4    1
    32    15     9   ar
    33    21    16    1
    34    30    22   ar
    35    29    25   ar
    36     3    31    1
    37    18    32    1
@<TRIPOS>MOLECULE
*****
 32 37 0 0 0
SMALL
GASTEIGER

@<TRIPOS>ATOM
      1 O         140.4249  143.0404  168.1900 O.2     1  UNL1       -0.2700
      2 C         140.4934  142.5454  166.7757 C.2     1  UNL1        0.2504
      3 N         139.6062  143.4907  166.0212 N.am    1  UNL1       -0.3003
      4 C         138.9551  143.9826  164.7626 C.3     1  UNL1        0.0974
      5 C         138.0220  145.1145  164.4493 C.3     1  UNL1        0.0234
      6 C         138.4943  144.8995  165.8567 C.3     1  UNL1        0.0234
      7 C         138.6891  143.9083  163.2882 C.3     1  UNL1        0.2247
      8 O         138.8692  143.2849  161.9358 O.3     1  UNL1       -0.4587
      9 C         139.4542  142.2552  161.0152 C.ar    1  UNL1        0.2224
     10 N         138.7043  142.9167  159.8972 N.ar    1  UNL1       -0.2080
     11 C         138.8101  142.3781  158.5013 C.ar    1  UNL1        0.1316
     12 C         139.6660  141.1779  158.2234 C.ar    1  UNL1        0.1592
     13 F         139.7719  140.6392  156.8275 F       1  UNL1       -0.2025
     14 C         140.4159  140.5164  159.3415 C.ar    1  UNL1        0.0332
     15 C         140.3100  141.0551  160.7374 C.ar    1  UNL1        0.0525
     16 C         141.2406  139.9594  161.1658 C.3     1  UNL1        0.1169
     17 C         141.2716  139.5090  159.7354 C.3     1  UNL1        0.0934
     18 N         142.0947  138.3185  159.3416 N.3     1  UNL1       -0.2944
     19 C         142.8868  137.5784  160.3783 C.3     1  UNL1        0.0904
     20 C         142.8559  138.0287  161.8087 C.3     1  UNL1        0.1095
     21 N         142.0328  139.2193  162.2025 N.pl3   1  UNL1       -0.2881
     22 C         142.5051  139.0043  163.6098 C.ar    1  UNL1        0.1352
     23 C         143.4688  138.1870  165.1610 C.ar    1  UNL1        0.0551
     24 C         143.6349  138.3927  166.6375 C.ar    1  UNL1        0.1050
     25 N         142.9227  139.5214  167.3223 N.ar    1  UNL1       -0.2104
     26 N         142.6551  140.2411  168.6109 N.ar    1  UNL1       -0.1619
     27 C         141.7222  141.3793  168.3209 C.ar    1  UNL1        0.1281
     28 C         141.4134  141.3631  166.8532 C.ar    1  UNL1        0.1099
     29 C         142.1553  140.2149  166.2361 C.ar    1  UNL1        0.1710
     30 N         142.5493  139.3635  165.0655 N.ar    1  UNL1       -0.2116
     31 H         139.2826  144.1125  166.7124 H       1  UNL1        0.1498
     32 H         142.7589  138.6397  158.6373 H       1  UNL1        0.1234
@<TRIPOS>BOND
     1     1     2    2
     2     2     3   am
     3     3     4    1
     4     4     5    1
     5     5     6    1
     6     4     7    1
     7     7     8    1
     8     8     9    1
     9     9    10   ar
    10    10    11   ar
    11    11    12   ar
    12    12    13    1
    13    12    14   ar
    14    14    15   ar
    15    15    16    1
    16    16    17    1
    17    17    18    1
    18    18    19    1
    19    19    20    1
    20    20    21    1
    21    21    22    1
    22    22    23   ar
    23    23    24   ar
    24    24    25   ar
    25    25    26   ar
    26    26    27   ar
    27    27    28   ar
    28    28    29   ar
    29    29    30   ar
    30    28     2    1
    31     6     4    1
    32    15     9   ar
    33    21    16    1
    34    30    22   ar
    35    29    25   ar
    36     3    31    1
    37    18    32    1
