@<TRIPOS>MOLECULE
*****
 22 23 0 0 0
SMALL
GASTEIGER

@<TRIPOS>ATOM
      1 C         141.4885  141.8073  166.6800 C.2     1  UNL1        0.2406
      2 O         140.7629  142.1678  165.4177 O.2     1  UNL1       -0.2733
      3 N         142.8929  141.2844  166.6146 N.am    1  UNL1       -0.2833
      4 H         143.3692  141.0478  167.4431 H       1  UNL1        0.1549
      5 C         143.5716  141.1220  165.2868 C.ar    1  UNL1        0.0423
      6 C         144.3599  142.2572  164.7036 C.ar    1  UNL1       -0.0087
      7 C         144.4695  143.5547  165.4482 C.3     1  UNL1        0.0323
      8 C         145.0387  142.0947  163.3758 C.ar    1  UNL1       -0.0031
      9 C         144.9291  140.7972  162.6313 C.ar    1  UNL1       -0.0006
     10 C         144.1408  139.6621  163.2145 C.ar    1  UNL1       -0.0031
     11 C         143.4621  139.8245  164.5422 C.ar    1  UNL1       -0.0087
     12 C         142.6738  138.6894  165.1254 C.3     1  UNL1        0.0323
     13 N         139.9752  140.8548  168.5648 N.3     1  UNL1       -0.2666
     14 C         139.2965  141.0172  169.8926 C.3     1  UNL1        0.0725
     15 C         139.4525  142.2945  170.6634 C.3     1  UNL1        0.0174
     16 C         140.2871  143.4094  170.1064 C.3     1  UNL1        0.0033
     17 C         140.9658  143.2470  168.7786 C.3     1  UNL1        0.0254
     18 C         140.8098  141.9697  168.0078 C.3     1  UNL1        0.1351
     19 C         139.8192  139.5774  167.7941 C.3     1  UNL1        0.0725
     20 C         138.5316  139.2828  167.0833 C.3     1  UNL1        0.0173
     21 C         138.9474  137.7063  165.0605 C.3     1  UNL1        0.0000
     22 C         138.5303  139.0412  165.6029 C.3     1  UNL1        0.0014
@<TRIPOS>BOND
     1    21    22    1
     2    22    20    1
     3    20    19    1
     4    19    13    1
     5    13    14    1
     6    14    15    1
     7    15    16    1
     8    16    17    1
     9    17    18    1
    10    18     1    1
    11     1     2    2
    12     1     3   am
    13     3     5    1
    14     5     6   ar
    15     6     7    1
    16     6     8   ar
    17     8     9   ar
    18     9    10   ar
    19    10    11   ar
    20    11    12    1
    21    18    13    1
    22    11     5   ar
    23     3     4    1
@<TRIPOS>MOLECULE
*****
 22 23 0 0 0
SMALL
GASTEIGER

@<TRIPOS>ATOM
      1 C         141.4941  141.8189  166.6847 C.2     1  UNL1        0.2406
      2 O         140.7686  142.1845  165.4238 O.2     1  UNL1       -0.2733
      3 N         142.9021  141.3060  166.6180 N.am    1  UNL1       -0.2833
      4 H         143.3783  141.0660  167.4456 H       1  UNL1        0.1549
      5 C         143.5846  141.1587  165.2905 C.ar    1  UNL1        0.0423
      6 C         143.4743  139.8709  164.5292 C.ar    1  UNL1       -0.0087
      7 C         142.6815  138.7305  165.0955 C.3     1  UNL1        0.0323
      8 C         144.1569  139.7237  163.2016 C.ar    1  UNL1       -0.0031
      9 C         144.9497  140.8642  162.6353 C.ar    1  UNL1       -0.0006
     10 C         145.0600  142.1519  163.3966 C.ar    1  UNL1       -0.0031
     11 C         144.3775  142.2992  164.7241 C.ar    1  UNL1       -0.0087
     12 C         144.4878  143.5870  165.4854 C.3     1  UNL1        0.0323
     13 N         139.9656  140.8496  168.5487 N.3     1  UNL1       -0.2666
     14 C         139.2832  140.9969  169.8763 C.3     1  UNL1        0.0725
     15 C         139.4467  142.2607  170.6675 C.3     1  UNL1        0.0174
     16 C         140.2927  143.3772  170.1312 C.3     1  UNL1        0.0033
     17 C         140.9751  143.2299  168.8036 C.3     1  UNL1        0.0254
     18 C         140.8116  141.9661  168.0123 C.3     1  UNL1        0.1351
     19 C         139.8021  139.5858  167.7574 C.3     1  UNL1        0.0725
     20 C         138.6104  139.4094  166.8637 C.3     1  UNL1        0.0173
     21 C         138.9988  137.6063  165.0339 C.3     1  UNL1        0.0000
     22 C         138.8020  139.0418  165.4221 C.3     1  UNL1        0.0014
@<TRIPOS>BOND
     1    21    22    1
     2    22    20    1
     3    20    19    1
     4    19    13    1
     5    13    14    1
     6    14    15    1
     7    15    16    1
     8    16    17    1
     9    17    18    1
    10    18     1    1
    11     1     2    2
    12     1     3   am
    13     3     5    1
    14     5     6   ar
    15     6     7    1
    16     6     8   ar
    17     8     9   ar
    18     9    10   ar
    19    10    11   ar
    20    11    12    1
    21    18    13    1
    22    11     5   ar
    23     3     4    1
@<TRIPOS>MOLECULE
*****
 22 23 0 0 0
SMALL
GASTEIGER

@<TRIPOS>ATOM
      1 C         140.6742  142.4770  165.9178 C.2     1  UNL1        0.2406
      2 O         142.1392  142.7702  165.7851 O.2     1  UNL1       -0.2733
      3 N         140.1487  141.8300  167.1650 N.am    1  UNL1       -0.2833
      4 H         139.1872  141.6375  167.2521 H       1  UNL1        0.1549
      5 C         141.0883  141.4763  168.2794 C.ar    1  UNL1        0.0423
      6 C         141.2126  142.3793  169.4707 C.ar    1  UNL1       -0.0087
      7 C         140.3973  143.6359  169.5476 C.3     1  UNL1        0.0323
      8 C         142.1523  142.0255  170.5852 C.ar    1  UNL1       -0.0031
      9 C         142.9676  140.7688  170.5083 C.ar    1  UNL1       -0.0006
     10 C         142.8433  139.8659  169.3170 C.ar    1  UNL1       -0.0031
     11 C         141.9037  140.2196  168.2026 C.ar    1  UNL1       -0.0087
     12 C         141.7795  139.3166  167.0113 C.3     1  UNL1        0.0323
     13 N         139.3693  141.8015  163.7751 N.3     1  UNL1       -0.2666
     14 C         138.4297  142.1552  162.6607 C.3     1  UNL1        0.0725
     15 C         137.8552  143.5382  162.5746 C.3     1  UNL1        0.0174
     16 C         138.2203  144.5674  163.6029 C.3     1  UNL1        0.0033
     17 C         139.1600  144.2136  164.7172 C.3     1  UNL1        0.0254
     18 C         139.7345  142.8307  164.8034 C.3     1  UNL1        0.1351
     19 C         139.9438  140.4185  163.8612 C.3     1  UNL1        0.0725
     20 C         139.1217  139.2987  164.4270 C.3     1  UNL1        0.0173
     21 C         138.0370  138.7559  166.7246 C.3     1  UNL1        0.0000
     22 C         138.0864  139.5834  165.4744 C.3     1  UNL1        0.0014
@<TRIPOS>BOND
     1    21    22    1
     2    22    20    1
     3    20    19    1
     4    19    13    1
     5    13    14    1
     6    14    15    1
     7    15    16    1
     8    16    17    1
     9    17    18    1
    10    18     1    1
    11     1     2    2
    12     1     3   am
    13     3     5    1
    14     5     6   ar
    15     6     7    1
    16     6     8   ar
    17     8     9   ar
    18     9    10   ar
    19    10    11   ar
    20    11    12    1
    21    18    13    1
    22    11     5   ar
    23     3     4    1
@<TRIPOS>MOLECULE
*****
 22 23 0 0 0
SMALL
GASTEIGER

@<TRIPOS>ATOM
      1 C         142.8035  139.7867  166.4621 C.2     1  UNL1        0.2406
      2 O         143.2667  138.8021  167.4946 O.2     1  UNL1       -0.2733
      3 N         141.8509  140.8809  166.8432 N.am    1  UNL1       -0.2833
      4 H         141.5469  141.5271  166.1655 H       1  UNL1        0.1549
      5 C         141.3615  140.9906  168.2568 C.ar    1  UNL1        0.0423
      6 C         140.0437  140.3872  168.6432 C.ar    1  UNL1       -0.0087
      7 C         139.2153  139.6742  167.6160 C.3     1  UNL1        0.0323
      8 C         139.5543  140.4969  170.0570 C.ar    1  UNL1       -0.0031
      9 C         140.3827  141.2100  171.0842 C.ar    1  UNL1       -0.0006
     10 C         141.7006  141.8133  170.6978 C.ar    1  UNL1       -0.0031
     11 C         142.1900  141.7036  169.2842 C.ar    1  UNL1       -0.0087
     12 C         143.5078  142.3070  168.8978 C.3     1  UNL1        0.0323
     13 N         142.7090  138.6443  164.1305 N.3     1  UNL1       -0.2666
     14 C         143.1985  138.5347  162.7169 C.3     1  UNL1        0.0725
     15 C         144.2718  139.4578  162.2211 C.3     1  UNL1        0.0174
     16 C         144.8556  140.4906  163.1389 C.3     1  UNL1        0.0033
     17 C         144.3662  140.6002  164.5525 C.3     1  UNL1        0.0254
     18 C         143.2929  139.6770  165.0484 C.3     1  UNL1        0.1351
     19 C         141.6358  137.7211  164.6264 C.3     1  UNL1        0.0725
     20 C         140.7513  137.0057  163.6487 C.3     1  UNL1        0.0173
     21 C         138.8215  138.7102  163.9960 C.3     1  UNL1        0.0000
     22 C         139.4893  137.6557  163.1641 C.3     1  UNL1        0.0014
@<TRIPOS>BOND
     1    21    22    1
     2    22    20    1
     3    20    19    1
     4    19    13    1
     5    13    14    1
     6    14    15    1
     7    15    16    1
     8    16    17    1
     9    17    18    1
    10    18     1    1
    11     1     2    2
    12     1     3   am
    13     3     5    1
    14     5     6   ar
    15     6     7    1
    16     6     8   ar
    17     8     9   ar
    18     9    10   ar
    19    10    11   ar
    20    11    12    1
    21    18    13    1
    22    11     5   ar
    23     3     4    1
@<TRIPOS>MOLECULE
*****
 22 23 0 0 0
SMALL
GASTEIGER

@<TRIPOS>ATOM
      1 C         142.7389  139.7114  166.4966 C.2     1  UNL1        0.2406
      2 O         143.2280  138.7851  167.5702 O.2     1  UNL1       -0.2733
      3 N         141.8100  140.8370  166.8431 N.am    1  UNL1       -0.2833
      4 H         141.4890  141.4450  166.1385 H       1  UNL1        0.1549
      5 C         141.3702  141.0363  168.2633 C.ar    1  UNL1        0.0423
      6 C         142.2371  141.8048  169.2161 C.ar    1  UNL1       -0.0087
      7 C         143.5438  142.3740  168.7488 C.3     1  UNL1        0.0323
      8 C         141.7972  142.0041  170.6363 C.ar    1  UNL1       -0.0031
      9 C         140.4905  141.4349  171.1036 C.ar    1  UNL1       -0.0006
     10 C         139.6236  140.6664  170.1507 C.ar    1  UNL1       -0.0031
     11 C         140.0634  140.4671  168.7306 C.ar    1  UNL1       -0.0087
     12 C         139.1965  139.6986  167.7778 C.3     1  UNL1        0.0323
     13 N         142.5080  138.4780  164.2216 N.3     1  UNL1       -0.2666
     14 C         142.9478  138.2788  162.8015 C.3     1  UNL1        0.0725
     15 C         144.0584  139.1137  162.2361 C.3     1  UNL1        0.0174
     16 C         144.7291  140.1478  163.0909 C.3     1  UNL1        0.0033
     17 C         144.2893  140.3471  164.5110 C.3     1  UNL1        0.0254
     18 C         143.1787  139.5121  165.0764 C.3     1  UNL1        0.1351
     19 C         141.3975  137.6431  164.7870 C.3     1  UNL1        0.0725
     20 C         139.9695  138.0455  164.5661 C.3     1  UNL1        0.0173
     21 C         139.2519  138.2781  162.0799 C.3     1  UNL1        0.0000
     22 C         139.2189  137.5245  163.3765 C.3     1  UNL1        0.0014
@<TRIPOS>BOND
     1    21    22    1
     2    22    20    1
     3    20    19    1
     4    19    13    1
     5    13    14    1
     6    14    15    1
     7    15    16    1
     8    16    17    1
     9    17    18    1
    10    18     1    1
    11     1     2    2
    12     1     3   am
    13     3     5    1
    14     5     6   ar
    15     6     7    1
    16     6     8   ar
    17     8     9   ar
    18     9    10   ar
    19    10    11   ar
    20    11    12    1
    21    18    13    1
    22    11     5   ar
    23     3     4    1
@<TRIPOS>MOLECULE
*****
 22 23 0 0 0
SMALL
GASTEIGER

@<TRIPOS>ATOM
      1 C         141.3155  139.5155  165.9694 C.2     1  UNL1        0.2406
      2 O         142.4348  138.7798  166.6445 O.2     1  UNL1       -0.2733
      3 N         140.7577  140.7632  166.5875 N.am    1  UNL1       -0.2833
      4 H         140.0230  141.2460  166.1444 H       1  UNL1        0.1549
      5 C         141.3192  141.2753  167.8807 C.ar    1  UNL1        0.0423
      6 C         140.6034  141.0012  169.1700 C.ar    1  UNL1       -0.0087
      7 C         139.3260  140.2150  169.1662 C.3     1  UNL1        0.0323
      8 C         141.1650  141.5134  170.4632 C.ar    1  UNL1       -0.0031
      9 C         142.4424  142.2996  170.4670 C.ar    1  UNL1       -0.0006
     10 C         143.1583  142.5737  169.1777 C.ar    1  UNL1       -0.0031
     11 C         142.5967  142.0616  167.8845 C.ar    1  UNL1       -0.0087
     12 C         143.3125  142.3357  166.5952 C.3     1  UNL1        0.0323
     13 N         141.4196  139.3536  163.3785 N.3     1  UNL1       -0.2666
     14 C         140.8579  138.8415  162.0853 C.3     1  UNL1        0.0725
     15 C         139.6306  137.9792  162.0899 C.3     1  UNL1        0.0174
     16 C         138.9648  137.6290  163.3876 C.3     1  UNL1        0.0033
     17 C         139.5265  138.1411  164.6807 C.3     1  UNL1        0.0254
     18 C         140.7538  139.0034  164.6762 C.3     1  UNL1        0.1351
     19 C         142.6469  140.2159  163.3739 C.3     1  UNL1        0.0725
     20 C         144.0063  139.5853  163.3065 C.3     1  UNL1        0.0173
     21 C         145.7440  141.4545  163.7928 C.3     1  UNL1        0.0000
     22 C         145.1284  140.1311  164.1389 C.3     1  UNL1        0.0014
@<TRIPOS>BOND
     1    21    22    1
     2    22    20    1
     3    20    19    1
     4    19    13    1
     5    13    14    1
     6    14    15    1
     7    15    16    1
     8    16    17    1
     9    17    18    1
    10    18     1    1
    11     1     2    2
    12     1     3   am
    13     3     5    1
    14     5     6   ar
    15     6     7    1
    16     6     8   ar
    17     8     9   ar
    18     9    10   ar
    19    10    11   ar
    20    11    12    1
    21    18    13    1
    22    11     5   ar
    23     3     4    1
@<TRIPOS>MOLECULE
*****
 22 23 0 0 0
SMALL
GASTEIGER

@<TRIPOS>ATOM
      1 C         140.4795  141.8663  166.2166 C.2     1  UNL1        0.2406
      2 O         141.1673  142.3462  164.9731 O.2     1  UNL1       -0.2733
      3 N         139.2824  140.9684  166.1127 N.am    1  UNL1       -0.2833
      4 H         138.8310  140.6534  166.9289 H       1  UNL1        0.1549
      5 C         138.7732  140.5504  164.7651 C.ar    1  UNL1        0.0423
      6 C         139.0615  139.1719  164.2489 C.ar    1  UNL1       -0.0087
      7 C         139.8590  138.2113  165.0802 C.3     1  UNL1        0.0323
      8 C         138.5522  138.7539  162.9013 C.ar    1  UNL1       -0.0031
      9 C         137.7546  139.7145  162.0700 C.ar    1  UNL1       -0.0006
     10 C         137.4663  141.0930  162.5862 C.ar    1  UNL1       -0.0031
     11 C         137.9755  141.5110  163.9337 C.ar    1  UNL1       -0.0087
     12 C         137.6872  142.8896  164.4500 C.3     1  UNL1        0.0323
     13 N         142.2885  141.7388  168.0771 N.3     1  UNL1       -0.2666
     14 C         142.7977  142.1568  169.4246 C.3     1  UNL1        0.0725
     15 C         142.0071  143.1202  170.2594 C.3     1  UNL1        0.0174
     16 C         140.7073  143.6656  169.7466 C.3     1  UNL1        0.0033
     17 C         140.1981  143.2476  168.3990 C.3     1  UNL1        0.0254
     18 C         140.9887  142.2842  167.5643 C.3     1  UNL1        0.1351
     19 C         143.0792  140.7755  167.2423 C.3     1  UNL1        0.0725
     20 C         142.8375  139.3005  167.3680 C.3     1  UNL1        0.0173
     21 C         143.6807  138.8509  164.9520 C.3     1  UNL1        0.0000
     22 C         143.3909  138.3594  166.3393 C.3     1  UNL1        0.0014
@<TRIPOS>BOND
     1    21    22    1
     2    22    20    1
     3    20    19    1
     4    19    13    1
     5    13    14    1
     6    14    15    1
     7    15    16    1
     8    16    17    1
     9    17    18    1
    10    18     1    1
    11     1     2    2
    12     1     3   am
    13     3     5    1
    14     5     6   ar
    15     6     7    1
    16     6     8   ar
    17     8     9   ar
    18     9    10   ar
    19    10    11   ar
    20    11    12    1
    21    18    13    1
    22    11     5   ar
    23     3     4    1
@<TRIPOS>MOLECULE
*****
 22 23 0 0 0
SMALL
GASTEIGER

@<TRIPOS>ATOM
      1 C         140.6328  142.4431  165.8474 C.2     1  UNL1        0.2406
      2 O         142.0916  142.7669  165.7169 O.2     1  UNL1       -0.2733
      3 N         140.1201  141.7800  167.0913 N.am    1  UNL1       -0.2833
      4 H         139.1627  141.5675  167.1770 H       1  UNL1        0.1549
      5 C         141.0662  141.4408  168.2048 C.ar    1  UNL1        0.0423
      6 C         141.9011  140.1971  168.1269 C.ar    1  UNL1       -0.0087
      7 C         141.7900  139.2926  166.9355 C.3     1  UNL1        0.0323
      8 C         142.8472  139.8579  169.2404 C.ar    1  UNL1       -0.0031
      9 C         142.9583  140.7624  170.4318 C.ar    1  UNL1       -0.0006
     10 C         142.1234  142.0061  170.5098 C.ar    1  UNL1       -0.0031
     11 C         141.1774  142.3453  169.3963 C.ar    1  UNL1       -0.0087
     12 C         140.3424  143.5890  169.4742 C.3     1  UNL1        0.0323
     13 N         139.1944  141.7049  163.8136 N.3     1  UNL1       -0.2666
     14 C         138.2483  142.0442  162.7002 C.3     1  UNL1        0.0725
     15 C         137.7945  143.4608  162.5070 C.3     1  UNL1        0.0174
     16 C         138.2868  144.5381  163.4272 C.3     1  UNL1        0.0033
     17 C         139.2329  144.1989  164.5407 C.3     1  UNL1        0.0254
     18 C         139.6867  142.7823  164.7339 C.3     1  UNL1        0.1351
     19 C         139.6482  140.2883  164.0068 C.3     1  UNL1        0.0725
     20 C         138.6369  139.1902  164.1530 C.3     1  UNL1        0.0173
     21 C         137.9834  138.7937  166.6361 C.3     1  UNL1        0.0000
     22 C         138.6450  138.3211  165.3756 C.3     1  UNL1        0.0014
@<TRIPOS>BOND
     1    21    22    1
     2    22    20    1
     3    20    19    1
     4    19    13    1
     5    13    14    1
     6    14    15    1
     7    15    16    1
     8    16    17    1
     9    17    18    1
    10    18     1    1
    11     1     2    2
    12     1     3   am
    13     3     5    1
    14     5     6   ar
    15     6     7    1
    16     6     8   ar
    17     8     9   ar
    18     9    10   ar
    19    10    11   ar
    20    11    12    1
    21    18    13    1
    22    11     5   ar
    23     3     4    1
@<TRIPOS>MOLECULE
*****
 22 23 0 0 0
SMALL
GASTEIGER

@<TRIPOS>ATOM
      1 C         141.9064  139.6592  165.9677 C.2     1  UNL1        0.2406
      2 O         142.7402  138.5997  165.3104 O.2     1  UNL1       -0.2733
      3 N         140.6008  140.0731  165.3560 N.am    1  UNL1       -0.2833
      4 H         140.0536  140.7686  165.7874 H       1  UNL1        0.1549
      5 C         140.1290  139.4274  164.0870 C.ar    1  UNL1        0.0423
      6 C         140.6161  139.9338  162.7617 C.ar    1  UNL1       -0.0087
      7 C         141.5751  141.0858  162.7054 C.3     1  UNL1        0.0323
      8 C         140.1442  139.2880  161.4927 C.ar    1  UNL1       -0.0031
      9 C         139.1853  138.1360  161.5490 C.ar    1  UNL1       -0.0006
     10 C         138.6982  137.6297  162.8742 C.ar    1  UNL1       -0.0031
     11 C         139.1700  138.2754  164.1432 C.ar    1  UNL1       -0.0087
     12 C         138.6829  137.7690  165.4685 C.3     1  UNL1        0.0323
     13 N         142.9027  141.7101  167.2133 N.3     1  UNL1       -0.2666
     14 C         143.3745  142.3558  168.4823 C.3     1  UNL1        0.0725
     15 C         143.3218  141.5964  169.7748 C.3     1  UNL1        0.0174
     16 C         142.7973  140.1913  169.7983 C.3     1  UNL1        0.0033
     17 C         142.3256  139.5456  168.5292 C.3     1  UNL1        0.0254
     18 C         142.3782  140.3050  167.2368 C.3     1  UNL1        0.1351
     19 C         142.9554  142.4695  165.9208 C.3     1  UNL1        0.0725
     20 C         144.2480  143.0735  165.4580 C.3     1  UNL1        0.0173
     21 C         145.1070  140.9841  164.1748 C.3     1  UNL1        0.0000
     22 C         144.9821  142.4740  164.2953 C.3     1  UNL1        0.0014
@<TRIPOS>BOND
     1    21    22    1
     2    22    20    1
     3    20    19    1
     4    19    13    1
     5    13    14    1
     6    14    15    1
     7    15    16    1
     8    16    17    1
     9    17    18    1
    10    18     1    1
    11     1     2    2
    12     1     3   am
    13     3     5    1
    14     5     6   ar
    15     6     7    1
    16     6     8   ar
    17     8     9   ar
    18     9    10   ar
    19    10    11   ar
    20    11    12    1
    21    18    13    1
    22    11     5   ar
    23     3     4    1
