@<TRIPOS>MOLECULE
*****
 36 40 0 0 0
SMALL
GASTEIGER

@<TRIPOS>ATOM
      1 C         137.9622  140.9160  163.3580 C.2     1  UNL1        0.2494
      2 O         136.7247  141.7444  163.1785 O.2     1  UNL1       -0.2699
      3 N         138.6236  140.2880  162.1672 N.am    1  UNL1       -0.2660
      4 C         139.8612  139.4596  162.3467 C.3     1  UNL1        0.1160
      5 C         140.5226  138.8316  161.1558 C.3     1  UNL1        0.1197
      6 N         139.9465  139.0320  159.7855 N.am    1  UNL1       -0.2555
      7 C         138.7090  139.8604  159.6059 C.2     1  UNL1        0.2497
      8 O         138.1328  140.0608  158.2356 O.2     1  UNL1       -0.2727
      9 C         138.0475  140.4884  160.7968 C.3     1  UNL1        0.1799
     10 C         139.6906  140.3148  167.4691 C.ar    1  UNL1        0.1057
     11 C         140.0604  141.5293  166.6703 C.ar    1  UNL1        0.0185
     12 C         139.4842  141.7297  165.3000 C.ar    1  UNL1        0.0058
     13 C         138.5383  140.7156  164.7284 C.ar    1  UNL1        0.0537
     14 C         138.1685  139.5011  165.5272 C.ar    1  UNL1        0.0058
     15 C         138.7447  139.3007  166.8976 C.ar    1  UNL1        0.0185
     16 C         140.8428  139.9140  170.2099 C.3     1  UNL1        0.1816
     17 S         140.2667  140.1144  168.8395 S.O2    1  UNL1        0.0104
     18 O         141.6449  140.3441  168.2937 O.2     1  UNL1       -0.1686
     19 O         138.8885  139.8847  169.3853 O.2     1  UNL1       -0.1686
     20 C         140.6080  138.4040  158.5946 C.ar    1  UNL1        0.0541
     21 C         139.7752  137.7487  157.5329 C.ar    1  UNL1        0.0180
     22 C         140.4367  137.1207  156.3421 C.ar    1  UNL1        0.0382
     23 C         141.9309  137.1480  156.2130 C.ar    1  UNL1        0.1385
     24 C         142.7636  137.8032  157.2747 C.ar    1  UNL1        0.0382
     25 C         142.1021  138.4312  158.4655 C.ar    1  UNL1        0.0180
     26 O         142.5924  136.5200  155.0221 O.3     1  UNL1       -0.4791
     27 C         142.9695  135.0685  155.0524 C.3     1  UNL1        0.1687
     28 C         142.4603  134.1390  153.9909 C.3     1  UNL1        0.0609
     29 C         142.8375  132.6875  154.0211 C.3     1  UNL1        0.0758
     30 N         143.7239  132.1655  155.1129 N.3     1  UNL1       -0.2737
     31 C         144.2331  133.0950  156.1744 C.3     1  UNL1        0.0758
     32 C         143.8559  134.5466  156.1441 C.3     1  UNL1        0.0609
     33 C         144.1011  130.7140  155.1431 C.3     1  UNL1        0.0575
     34 C         144.1687  129.6577  156.2059 C.3     1  UNL1        0.0160
     35 C         144.6345  128.6613  155.1859 C.3     1  UNL1        0.0028
     36 C         144.5668  129.7177  154.1231 C.3     1  UNL1        0.0160
@<TRIPOS>BOND
     1    16    17    1
     2    17    18    2
     3    17    19    2
     4    17    10    1
     5    10    11   ar
     6    11    12   ar
     7    12    13   ar
     8    13     1    1
     9     1     2    2
    10     1     3   am
    11     3     4    1
    12     4     5    1
    13     5     6    1
    14     6    20    1
    15    20    21   ar
    16    21    22   ar
    17    22    23   ar
    18    23    26    1
    19    26    27    1
    20    27    28    1
    21    28    29    1
    22    29    30    1
    23    30    33    1
    24    33    34    1
    25    34    35    1
    26    35    36    1
    27    30    31    1
    28    31    32    1
    29    23    24   ar
    30    24    25   ar
    31     6     7   am
    32     7     8    2
    33     7     9    1
    34    13    14   ar
    35    14    15   ar
    36    15    10   ar
    37     9     3    1
    38    25    20   ar
    39    32    27    1
    40    36    33    1
@<TRIPOS>MOLECULE
*****
 36 40 0 0 0
SMALL
GASTEIGER

@<TRIPOS>ATOM
      1 C         138.7952  142.2913  164.4769 C.2     1  UNL1        0.2494
      2 O         137.7137  143.3306  164.4703 O.2     1  UNL1       -0.2699
      3 N         139.2188  141.6416  163.1930 N.am    1  UNL1       -0.2660
      4 C         140.3004  140.6023  163.1995 C.3     1  UNL1        0.1160
      5 C         140.7240  139.9526  161.9156 C.3     1  UNL1        0.1197
      6 N         140.0660  140.3422  160.6251 N.am    1  UNL1       -0.2555
      7 C         138.9845  141.3815  160.6186 C.2     1  UNL1        0.2497
      8 O         138.3266  141.7711  159.3281 O.2     1  UNL1       -0.2727
      9 C         138.5609  142.0313  161.9025 C.3     1  UNL1        0.1799
     10 C         140.7691  141.1224  168.3483 C.ar    1  UNL1        0.1057
     11 C         139.8579  140.1573  167.6496 C.ar    1  UNL1        0.0185
     12 C         139.2000  140.5469  166.3592 C.ar    1  UNL1        0.0058
     13 C         139.4532  141.9017  165.7673 C.ar    1  UNL1        0.0537
     14 C         140.3643  142.8669  166.4660 C.ar    1  UNL1        0.0058
     15 C         141.0223  142.4773  167.7565 C.ar    1  UNL1        0.0185
     16 C         142.0850  140.3432  170.9292 C.3     1  UNL1        0.1816
     17 S         141.4270  140.7328  169.6387 S.O2    1  UNL1        0.0104
     18 O         142.4617  141.7992  169.4331 O.2     1  UNL1       -0.1686
     19 O         140.3923  139.6665  169.8443 O.2     1  UNL1       -0.1686
     20 C         140.4897  139.6925  159.3412 C.ar    1  UNL1        0.0541
     21 C         141.7476  140.1365  158.6553 C.ar    1  UNL1        0.0180
     22 C         142.1712  139.4868  157.3714 C.ar    1  UNL1        0.0382
     23 C         141.3368  138.3930  156.7734 C.ar    1  UNL1        0.1385
     24 C         140.0790  137.9490  157.4593 C.ar    1  UNL1        0.0382
     25 C         139.6554  138.5987  158.7432 C.ar    1  UNL1        0.0180
     26 O         141.7605  137.7433  155.4895 O.3     1  UNL1       -0.4791
     27 C         142.3209  136.3520  155.5022 C.3     1  UNL1        0.1687
     28 C         143.0720  135.8569  156.7025 C.3     1  UNL1        0.0609
     29 C         143.6324  134.4656  156.7153 C.3     1  UNL1        0.0758
     30 N         143.4417  133.5693  155.5277 N.3     1  UNL1       -0.2737
     31 C         142.6906  134.0644  154.3274 C.3     1  UNL1        0.0758
     32 C         142.1301  135.4558  154.3147 C.3     1  UNL1        0.0609
     33 C         144.0021  132.1780  155.5404 C.3     1  UNL1        0.0575
     34 C         143.6888  130.9017  154.8173 C.3     1  UNL1        0.0160
     35 C         144.7946  130.2104  155.5584 C.3     1  UNL1        0.0028
     36 C         145.1079  131.4867  156.2815 C.3     1  UNL1        0.0160
@<TRIPOS>BOND
     1    16    17    1
     2    17    18    2
     3    17    19    2
     4    17    10    1
     5    10    11   ar
     6    11    12   ar
     7    12    13   ar
     8    13     1    1
     9     1     2    2
    10     1     3   am
    11     3     4    1
    12     4     5    1
    13     5     6    1
    14     6    20    1
    15    20    21   ar
    16    21    22   ar
    17    22    23   ar
    18    23    26    1
    19    26    27    1
    20    27    28    1
    21    28    29    1
    22    29    30    1
    23    30    33    1
    24    33    34    1
    25    34    35    1
    26    35    36    1
    27    30    31    1
    28    31    32    1
    29    23    24   ar
    30    24    25   ar
    31     6     7   am
    32     7     8    2
    33     7     9    1
    34    13    14   ar
    35    14    15   ar
    36    15    10   ar
    37     9     3    1
    38    25    20   ar
    39    32    27    1
    40    36    33    1
@<TRIPOS>MOLECULE
*****
 36 40 0 0 0
SMALL
GASTEIGER

@<TRIPOS>ATOM
      1 C         141.3333  143.4145  164.1430 C.2     1  UNL1        0.2494
      2 O         141.1052  144.8835  163.9432 O.2     1  UNL1       -0.2699
      3 N         141.3842  142.4955  162.9586 N.am    1  UNL1       -0.2660
      4 C         141.6124  141.0264  163.1584 C.3     1  UNL1        0.1160
      5 C         141.6633  140.1075  161.9740 C.3     1  UNL1        0.1197
      6 N         141.4860  140.6575  160.5898 N.am    1  UNL1       -0.2555
      7 C         141.2579  142.1264  160.3900 C.2     1  UNL1        0.2497
      8 O         141.0806  142.6764  159.0057 O.2     1  UNL1       -0.2727
      9 C         141.2070  143.0455  161.5744 C.3     1  UNL1        0.1799
     10 C         141.8651  141.7645  168.2957 C.ar    1  UNL1        0.1057
     11 C         143.0663  142.0937  167.4599 C.ar    1  UNL1        0.0185
     12 C         142.8891  142.6437  166.0757 C.ar    1  UNL1        0.0058
     13 C         141.5106  142.8645  165.5272 C.ar    1  UNL1        0.0537
     14 C         140.3093  142.5353  166.3630 C.ar    1  UNL1        0.0058
     15 C         140.4866  141.9853  167.7472 C.ar    1  UNL1        0.0185
     16 C         142.2196  140.6645  171.0642 C.3     1  UNL1        0.1816
     17 S         142.0423  141.2145  169.6799 S.O2    1  UNL1        0.0104
     18 O         141.0850  142.2404  170.2101 O.2     1  UNL1       -0.1686
     19 O         142.9996  140.1886  169.1497 O.2     1  UNL1       -0.1686
     20 C         141.5369  139.7384  159.4054 C.ar    1  UNL1        0.0541
     21 C         140.3148  138.9690  159.0001 C.ar    1  UNL1        0.0180
     22 C         140.3658  138.0499  157.8157 C.ar    1  UNL1        0.0382
     23 C         141.6388  137.9003  157.0367 C.ar    1  UNL1        0.1385
     24 C         142.8610  138.6698  157.4420 C.ar    1  UNL1        0.0382
     25 C         142.8100  139.5888  158.6264 C.ar    1  UNL1        0.0180
     26 O         141.6897  136.9813  155.8522 O.3     1  UNL1       -0.4791
     27 C         141.9881  135.5241  156.0459 C.3     1  UNL1        0.1687
     28 C         143.0502  135.0985  157.0158 C.3     1  UNL1        0.0609
     29 C         143.3486  133.6413  157.2095 C.3     1  UNL1        0.0758
     30 N         142.5848  132.6096  156.4333 N.3     1  UNL1       -0.2737
     31 C         141.5227  133.0353  155.4634 C.3     1  UNL1        0.0758
     32 C         141.2244  134.4926  155.2697 C.3     1  UNL1        0.0609
     33 C         142.8832  131.1525  156.6270 C.3     1  UNL1        0.0575
     34 C         142.4952  129.8873  155.9207 C.3     1  UNL1        0.0160
     35 C         143.3051  129.0917  156.9009 C.3     1  UNL1        0.0028
     36 C         143.6932  130.3568  157.6072 C.3     1  UNL1        0.0160
@<TRIPOS>BOND
     1    16    17    1
     2    17    18    2
     3    17    19    2
     4    17    10    1
     5    10    11   ar
     6    11    12   ar
     7    12    13   ar
     8    13     1    1
     9     1     2    2
    10     1     3   am
    11     3     4    1
    12     4     5    1
    13     5     6    1
    14     6    20    1
    15    20    21   ar
    16    21    22   ar
    17    22    23   ar
    18    23    26    1
    19    26    27    1
    20    27    28    1
    21    28    29    1
    22    29    30    1
    23    30    33    1
    24    33    34    1
    25    34    35    1
    26    35    36    1
    27    30    31    1
    28    31    32    1
    29    23    24   ar
    30    24    25   ar
    31     6     7   am
    32     7     8    2
    33     7     9    1
    34    13    14   ar
    35    14    15   ar
    36    15    10   ar
    37     9     3    1
    38    25    20   ar
    39    32    27    1
    40    36    33    1
@<TRIPOS>MOLECULE
*****
 36 40 0 0 0
SMALL
GASTEIGER

@<TRIPOS>ATOM
      1 C         140.8694  138.1741  163.7216 C.2     1  UNL1        0.2494
      2 O         141.1398  136.7001  163.6589 O.2     1  UNL1       -0.2699
      3 N         140.8607  138.9893  162.4625 N.am    1  UNL1       -0.2660
      4 C         140.5903  140.4634  162.5252 C.3     1  UNL1        0.1160
      5 C         140.5816  141.2786  161.2661 C.3     1  UNL1        0.1197
      6 N         140.8434  140.6196  159.9442 N.am    1  UNL1       -0.2555
      7 C         141.1138  139.1456  159.8815 C.2     1  UNL1        0.2497
      8 O         141.3755  138.4867  158.5596 O.2     1  UNL1       -0.2727
      9 C         141.1225  138.3304  161.1406 C.3     1  UNL1        0.1799
     10 C         140.0842  140.1508  167.6872 C.ar    1  UNL1        0.1057
     11 C         138.9449  139.5840  166.8931 C.ar    1  UNL1        0.0185
     12 C         139.2066  138.9251  165.5712 C.ar    1  UNL1        0.0058
     13 C         140.6076  138.8330  165.0435 C.ar    1  UNL1        0.0537
     14 C         141.7469  139.3999  165.8376 C.ar    1  UNL1        0.0058
     15 C         141.4852  140.0588  167.1595 C.ar    1  UNL1        0.0185
     16 C         139.5607  141.4686  170.3309 C.3     1  UNL1        0.1816
     17 S         139.8224  140.8097  169.0091 S.O2    1  UNL1        0.0104
     18 O         140.8401  141.8631  168.6856 O.2     1  UNL1       -0.1686
     19 O         138.8047  139.7564  169.3326 O.2     1  UNL1       -0.1686
     20 C         140.8347  141.4349  158.6851 C.ar    1  UNL1        0.0541
     21 C         142.0252  142.2739  158.3266 C.ar    1  UNL1        0.0180
     22 C         142.0165  143.0891  157.0675 C.ar    1  UNL1        0.0382
     23 C         140.8172  143.0652  156.1669 C.ar    1  UNL1        0.1385
     24 C         139.6266  142.2262  156.5254 C.ar    1  UNL1        0.0382
     25 C         139.6354  141.4110  157.7845 C.ar    1  UNL1        0.0180
     26 O         140.8085  143.8805  154.9077 O.3     1  UNL1       -0.4791
     27 C         140.3868  145.3193  154.9488 C.3     1  UNL1        0.1687
     28 C         139.5443  145.8219  156.0835 C.3     1  UNL1        0.0609
     29 C         139.1226  147.2608  156.1245 C.3     1  UNL1        0.0758
     30 N         139.5434  148.1972  155.0308 N.3     1  UNL1       -0.2737
     31 C         140.3859  147.6946  153.8961 C.3     1  UNL1        0.0758
     32 C         140.8076  146.2556  153.8551 C.3     1  UNL1        0.0609
     33 C         139.1217  149.6361  155.0718 C.3     1  UNL1        0.0575
     34 C         139.3160  150.8242  154.1770 C.3     1  UNL1        0.0160
     35 C         138.5253  151.6710  155.1298 C.3     1  UNL1        0.0028
     36 C         138.3310  150.4829  156.0246 C.3     1  UNL1        0.0160
@<TRIPOS>BOND
     1    16    17    1
     2    17    18    2
     3    17    19    2
     4    17    10    1
     5    10    11   ar
     6    11    12   ar
     7    12    13   ar
     8    13     1    1
     9     1     2    2
    10     1     3   am
    11     3     4    1
    12     4     5    1
    13     5     6    1
    14     6    20    1
    15    20    21   ar
    16    21    22   ar
    17    22    23   ar
    18    23    26    1
    19    26    27    1
    20    27    28    1
    21    28    29    1
    22    29    30    1
    23    30    33    1
    24    33    34    1
    25    34    35    1
    26    35    36    1
    27    30    31    1
    28    31    32    1
    29    23    24   ar
    30    24    25   ar
    31     6     7   am
    32     7     8    2
    33     7     9    1
    34    13    14   ar
    35    14    15   ar
    36    15    10   ar
    37     9     3    1
    38    25    20   ar
    39    32    27    1
    40    36    33    1
@<TRIPOS>MOLECULE
*****
 36 40 0 0 0
SMALL
GASTEIGER

@<TRIPOS>ATOM
      1 C         144.4726  141.3319  163.8784 C.2     1  UNL1        0.2494
      2 O         145.9370  141.0087  163.9108 O.2     1  UNL1       -0.2699
      3 N         143.8486  141.8594  162.6205 N.am    1  UNL1       -0.2660
      4 C         142.3842  142.1826  162.5881 C.3     1  UNL1        0.1160
      5 C         141.7602  142.7102  161.3302 C.3     1  UNL1        0.1197
      6 N         142.6006  142.9146  160.1047 N.am    1  UNL1       -0.2555
      7 C         144.0650  142.5914  160.1371 C.2     1  UNL1        0.2497
      8 O         144.9054  142.7958  158.9115 O.2     1  UNL1       -0.2727
      9 C         144.6891  142.0638  161.3950 C.3     1  UNL1        0.1799
     10 C         141.9513  140.7187  167.5550 C.ar    1  UNL1        0.1057
     11 C         142.2161  139.5703  166.6271 C.ar    1  UNL1        0.0185
     12 C         143.0566  139.7747  165.4016 C.ar    1  UNL1        0.0058
     13 C         143.6321  141.1275  165.1039 C.ar    1  UNL1        0.0537
     14 C         143.3673  142.2759  166.0318 C.ar    1  UNL1        0.0058
     15 C         142.5269  142.0715  167.2573 C.ar    1  UNL1        0.0185
     16 C         140.2704  140.3099  170.0060 C.3     1  UNL1        0.1816
     17 S         141.1109  140.5143  168.7805 S.O2    1  UNL1        0.0104
     18 O         140.1802  141.5981  168.3231 O.2     1  UNL1       -0.1686
     19 O         142.0415  139.4304  169.2379 O.2     1  UNL1       -0.1686
     20 C         141.9766  143.4422  158.8468 C.ar    1  UNL1        0.0541
     21 C         142.2500  144.8500  158.4073 C.ar    1  UNL1        0.0180
     22 C         141.6259  145.3775  157.1494 C.ar    1  UNL1        0.0382
     23 C         140.7286  144.4972  156.3311 C.ar    1  UNL1        0.1385
     24 C         140.4552  143.0894  156.7705 C.ar    1  UNL1        0.0382
     25 C         141.0792  142.5619  158.0284 C.ar    1  UNL1        0.0180
     26 O         140.1045  145.0248  155.0731 O.3     1  UNL1       -0.4791
     27 C         139.8580  146.4963  154.9182 C.3     1  UNL1        0.1687
     28 C         138.8942  147.1954  155.8305 C.3     1  UNL1        0.0609
     29 C         138.6476  148.6668  155.6756 C.3     1  UNL1        0.0758
     30 N         139.3649  149.4392  154.6083 N.3     1  UNL1       -0.2737
     31 C         140.3288  148.7401  153.6961 C.3     1  UNL1        0.0758
     32 C         140.5753  147.2686  153.8510 C.3     1  UNL1        0.0609
     33 C         139.1184  150.9106  154.4534 C.3     1  UNL1        0.0575
     34 C         139.1168  151.8702  153.3005 C.3     1  UNL1        0.0160
     35 C         138.7698  152.9916  154.2343 C.3     1  UNL1        0.0028
     36 C         138.7714  152.0320  155.3873 C.3     1  UNL1        0.0160
@<TRIPOS>BOND
     1    16    17    1
     2    17    18    2
     3    17    19    2
     4    17    10    1
     5    10    11   ar
     6    11    12   ar
     7    12    13   ar
     8    13     1    1
     9     1     2    2
    10     1     3   am
    11     3     4    1
    12     4     5    1
    13     5     6    1
    14     6    20    1
    15    20    21   ar
    16    21    22   ar
    17    22    23   ar
    18    23    26    1
    19    26    27    1
    20    27    28    1
    21    28    29    1
    22    29    30    1
    23    30    33    1
    24    33    34    1
    25    34    35    1
    26    35    36    1
    27    30    31    1
    28    31    32    1
    29    23    24   ar
    30    24    25   ar
    31     6     7   am
    32     7     8    2
    33     7     9    1
    34    13    14   ar
    35    14    15   ar
    36    15    10   ar
    37     9     3    1
    38    25    20   ar
    39    32    27    1
    40    36    33    1
@<TRIPOS>MOLECULE
*****
 36 40 0 0 0
SMALL
GASTEIGER

@<TRIPOS>ATOM
      1 C         138.6216  141.6621  163.0626 C.2     1  UNL1        0.2494
      2 O         137.6597  142.7867  162.8176 O.2     1  UNL1       -0.2699
      3 N         139.1771  140.8849  161.9062 N.am    1  UNL1       -0.2660
      4 C         140.1390  139.7603  162.1512 C.3     1  UNL1        0.1160
      5 C         140.6946  138.9831  160.9948 C.3     1  UNL1        0.1197
      6 N         140.2882  139.3305  159.5933 N.am    1  UNL1       -0.2555
      7 C         139.3263  140.4551  159.3482 C.2     1  UNL1        0.2497
      8 O         138.9200  140.8025  157.9467 O.2     1  UNL1       -0.2727
      9 C         138.7708  141.2323  160.5047 C.3     1  UNL1        0.1799
     10 C         139.8407  140.6198  167.2671 C.ar    1  UNL1        0.1057
     11 C         138.7460  139.8490  166.5907 C.ar    1  UNL1        0.0185
     12 C         138.3397  140.1964  165.1892 C.ar    1  UNL1        0.0058
     13 C         139.0280  141.3147  164.4641 C.ar    1  UNL1        0.0537
     14 C         140.1226  142.0855  165.1405 C.ar    1  UNL1        0.0058
     15 C         140.5290  141.7380  166.5420 C.ar    1  UNL1        0.0185
     16 C         140.6534  139.9250  170.0701 C.3     1  UNL1        0.1816
     17 S         140.2470  140.2724  168.6686 S.O2    1  UNL1        0.0104
     18 O         141.5448  140.9986  168.4723 O.2     1  UNL1       -0.1686
     19 O         138.9492  139.5463  168.8649 O.2     1  UNL1       -0.1686
     20 C         140.8438  138.5533  158.4368 C.ar    1  UNL1        0.0541
     21 C         142.3265  138.4886  158.2198 C.ar    1  UNL1        0.0180
     22 C         142.8820  137.7114  157.0634 C.ar    1  UNL1        0.0382
     23 C         141.9548  136.9989  156.1240 C.ar    1  UNL1        0.1385
     24 C         140.4720  137.0636  156.3410 C.ar    1  UNL1        0.0382
     25 C         139.9165  137.8408  157.4974 C.ar    1  UNL1        0.0180
     26 O         142.5103  136.2217  154.9675 O.3     1  UNL1       -0.4791
     27 C         142.0718  134.8062  154.7354 C.3     1  UNL1        0.1687
     28 C         141.5409  134.3959  153.3938 C.3     1  UNL1        0.0609
     29 C         141.1023  132.9804  153.1616 C.3     1  UNL1        0.0758
     30 N         141.1947  131.9750  154.2710 N.3     1  UNL1       -0.2737
     31 C         141.7255  132.3853  155.6126 C.3     1  UNL1        0.0758
     32 C         142.1641  133.8009  155.8448 C.3     1  UNL1        0.0609
     33 C         140.7561  130.5595  154.0389 C.3     1  UNL1        0.0575
     34 C         139.9039  129.5771  154.7862 C.3     1  UNL1        0.0160
     35 C         140.1359  128.5577  153.7105 C.3     1  UNL1        0.0028
     36 C         140.9881  129.5401  152.9632 C.3     1  UNL1        0.0160
@<TRIPOS>BOND
     1    16    17    1
     2    17    18    2
     3    17    19    2
     4    17    10    1
     5    10    11   ar
     6    11    12   ar
     7    12    13   ar
     8    13     1    1
     9     1     2    2
    10     1     3   am
    11     3     4    1
    12     4     5    1
    13     5     6    1
    14     6    20    1
    15    20    21   ar
    16    21    22   ar
    17    22    23   ar
    18    23    26    1
    19    26    27    1
    20    27    28    1
    21    28    29    1
    22    29    30    1
    23    30    33    1
    24    33    34    1
    25    34    35    1
    26    35    36    1
    27    30    31    1
    28    31    32    1
    29    23    24   ar
    30    24    25   ar
    31     6     7   am
    32     7     8    2
    33     7     9    1
    34    13    14   ar
    35    14    15   ar
    36    15    10   ar
    37     9     3    1
    38    25    20   ar
    39    32    27    1
    40    36    33    1
@<TRIPOS>MOLECULE
*****
 36 40 0 0 0
SMALL
GASTEIGER

@<TRIPOS>ATOM
      1 C         143.3966  136.5251  155.6388 C.2     1  UNL1        0.2494
      2 O         144.6776  137.2609  155.3788 O.2     1  UNL1       -0.2699
      3 N         142.0863  137.2513  155.5646 N.am    1  UNL1       -0.2660
      4 C         140.8052  136.5156  155.8246 C.3     1  UNL1        0.1160
      5 C         139.4949  137.2418  155.7504 C.3     1  UNL1        0.1197
      6 N         139.4655  138.7038  155.4164 N.am    1  UNL1       -0.2555
      7 C         140.7465  139.4396  155.1565 C.2     1  UNL1        0.2497
      8 O         140.7172  140.9017  154.8224 O.2     1  UNL1       -0.2727
      9 C         142.0570  138.7134  155.2306 C.3     1  UNL1        0.1799
     10 C         143.4846  132.1390  156.6409 C.ar    1  UNL1        0.1057
     11 C         143.2225  132.5812  155.2318 C.ar    1  UNL1        0.0185
     12 C         143.1932  134.0433  154.8977 C.ar    1  UNL1        0.0058
     13 C         143.4259  135.0630  155.9728 C.ar    1  UNL1        0.0537
     14 C         143.6880  134.6208  157.3819 C.ar    1  UNL1        0.0058
     15 C         143.7174  133.1587  157.7160 C.ar    1  UNL1        0.0185
     16 C         143.5432  129.2149  157.3090 C.3     1  UNL1        0.1816
     17 S         143.5139  130.6769  156.9749 S.O2    1  UNL1        0.0104
     18 O         144.6170  130.9243  157.9609 O.2     1  UNL1       -0.1686
     19 O         142.4108  130.4295  155.9890 O.2     1  UNL1       -0.1686
     20 C         138.1551  139.4301  155.3423 C.ar    1  UNL1        0.0541
     21 C         137.1572  139.0703  154.2818 C.ar    1  UNL1        0.0180
     22 C         135.8468  139.7966  154.2077 C.ar    1  UNL1        0.0382
     23 C         135.5344  140.8826  155.1941 C.ar    1  UNL1        0.1385
     24 C         136.5324  141.2424  156.2545 C.ar    1  UNL1        0.0382
     25 C         137.8427  140.5161  156.3286 C.ar    1  UNL1        0.0180
     26 O         134.2240  141.6089  155.1200 O.3     1  UNL1       -0.4791
     27 C         133.0005  141.0147  155.7523 C.3     1  UNL1        0.1687
     28 C         133.1393  139.9508  156.8005 C.3     1  UNL1        0.0609
     29 C         131.9158  139.3567  157.4328 C.3     1  UNL1        0.0758
     30 N         130.5533  139.8265  157.0170 N.3     1  UNL1       -0.2737
     31 C         130.4144  140.8905  155.9689 C.3     1  UNL1        0.0758
     32 C         131.6380  141.4846  155.3365 C.3     1  UNL1        0.0609
     33 C         129.3297  139.2324  157.6494 C.3     1  UNL1        0.0575
     34 C         128.9222  137.8556  158.0832 C.3     1  UNL1        0.0160
     35 C         127.5993  138.3922  158.5437 C.3     1  UNL1        0.0028
     36 C         128.0068  139.7691  158.1099 C.3     1  UNL1        0.0160
@<TRIPOS>BOND
     1    16    17    1
     2    17    18    2
     3    17    19    2
     4    17    10    1
     5    10    11   ar
     6    11    12   ar
     7    12    13   ar
     8    13     1    1
     9     1     2    2
    10     1     3   am
    11     3     4    1
    12     4     5    1
    13     5     6    1
    14     6    20    1
    15    20    21   ar
    16    21    22   ar
    17    22    23   ar
    18    23    26    1
    19    26    27    1
    20    27    28    1
    21    28    29    1
    22    29    30    1
    23    30    33    1
    24    33    34    1
    25    34    35    1
    26    35    36    1
    27    30    31    1
    28    31    32    1
    29    23    24   ar
    30    24    25   ar
    31     6     7   am
    32     7     8    2
    33     7     9    1
    34    13    14   ar
    35    14    15   ar
    36    15    10   ar
    37     9     3    1
    38    25    20   ar
    39    32    27    1
    40    36    33    1
@<TRIPOS>MOLECULE
*****
 36 40 0 0 0
SMALL
GASTEIGER

@<TRIPOS>ATOM
      1 C         142.5660  136.8719  155.0294 C.2     1  UNL1        0.2494
      2 O         142.5117  137.3627  153.6131 O.2     1  UNL1       -0.2699
      3 N         142.5799  137.8536  156.1634 N.am    1  UNL1       -0.2660
      4 C         142.6342  137.3628  157.5798 C.3     1  UNL1        0.1160
      5 C         142.6482  138.3446  158.7138 C.3     1  UNL1        0.1197
      6 N         142.6079  139.8172  158.4314 N.am    1  UNL1       -0.2555
      7 C         142.5536  140.3081  157.0150 C.2     1  UNL1        0.2497
      8 O         142.5133  141.7807  156.7327 O.2     1  UNL1       -0.2727
      9 C         142.5396  139.3263  155.8810 C.3     1  UNL1        0.1799
     10 C         142.6869  132.4540  155.8766 C.ar    1  UNL1        0.1057
     11 C         143.9330  133.2780  156.0120 C.ar    1  UNL1        0.0185
     12 C         143.8926  134.7506  155.7296 C.ar    1  UNL1        0.0058
     13 C         142.6063  135.3992  155.3118 C.ar    1  UNL1        0.0537
     14 C         141.3603  134.5752  155.1764 C.ar    1  UNL1        0.0058
     15 C         141.4006  133.1026  155.4588 C.ar    1  UNL1        0.0185
     16 C         142.7676  129.5087  156.4413 C.3     1  UNL1        0.1816
     17 S         142.7273  130.9814  156.1590 S.O2    1  UNL1        0.0104
     18 O         141.5976  130.7658  155.1959 O.2     1  UNL1       -0.1686
     19 O         143.8569  131.1970  157.1220 O.2     1  UNL1       -0.1686
     20 C         142.6218  140.7990  159.5654 C.ar    1  UNL1        0.0541
     21 C         141.3338  141.2215  160.2076 C.ar    1  UNL1        0.0180
     22 C         141.3478  142.2032  161.3416 C.ar    1  UNL1        0.0382
     23 C         142.6499  142.7624  161.8334 C.ar    1  UNL1        0.1385
     24 C         143.9379  142.3399  161.1912 C.ar    1  UNL1        0.0382
     25 C         143.9239  141.3582  160.0573 C.ar    1  UNL1        0.0180
     26 O         142.6639  143.7442  162.9674 O.3     1  UNL1       -0.4791
     27 C         142.1146  143.3510  164.3067 C.3     1  UNL1        0.1687
     28 C         140.6949  143.6806  164.6613 C.3     1  UNL1        0.0609
     29 C         140.1457  143.2874  166.0006 C.3     1  UNL1        0.0758
     30 N         141.0162  142.5644  166.9853 N.3     1  UNL1       -0.2737
     31 C         142.4359  142.2347  166.6307 C.3     1  UNL1        0.0758
     32 C         142.9851  142.6280  165.2913 C.3     1  UNL1        0.0609
     33 C         140.4670  142.1712  168.3246 C.3     1  UNL1        0.0575
     34 C         139.8850  140.9166  168.9054 C.3     1  UNL1        0.0160
     35 C         139.6903  141.6150  170.2186 C.3     1  UNL1        0.0028
     36 C         140.2724  142.8695  169.6378 C.3     1  UNL1        0.0160
@<TRIPOS>BOND
     1    16    17    1
     2    17    18    2
     3    17    19    2
     4    17    10    1
     5    10    11   ar
     6    11    12   ar
     7    12    13   ar
     8    13     1    1
     9     1     2    2
    10     1     3   am
    11     3     4    1
    12     4     5    1
    13     5     6    1
    14     6    20    1
    15    20    21   ar
    16    21    22   ar
    17    22    23   ar
    18    23    26    1
    19    26    27    1
    20    27    28    1
    21    28    29    1
    22    29    30    1
    23    30    33    1
    24    33    34    1
    25    34    35    1
    26    35    36    1
    27    30    31    1
    28    31    32    1
    29    23    24   ar
    30    24    25   ar
    31     6     7   am
    32     7     8    2
    33     7     9    1
    34    13    14   ar
    35    14    15   ar
    36    15    10   ar
    37     9     3    1
    38    25    20   ar
    39    32    27    1
    40    36    33    1
@<TRIPOS>MOLECULE
*****
 36 40 0 0 0
SMALL
GASTEIGER

@<TRIPOS>ATOM
      1 C         147.2177  141.5194  154.1807 C.2     1  UNL1        0.2494
      2 O         146.5723  140.7307  153.0801 O.2     1  UNL1       -0.2699
      3 N         146.4644  141.7931  155.4485 N.am    1  UNL1       -0.2660
      4 C         147.1099  142.5818  156.5492 C.3     1  UNL1        0.1160
      5 C         146.3565  142.8554  157.8171 C.3     1  UNL1        0.1197
      6 N         144.9577  142.3404  157.9843 N.am    1  UNL1       -0.2555
      7 C         144.3122  141.5517  156.8838 C.2     1  UNL1        0.2497
      8 O         142.9133  141.0367  157.0511 O.2     1  UNL1       -0.2727
      9 C         145.0655  141.2780  155.6158 C.3     1  UNL1        0.1799
     10 C         151.4143  143.0645  153.6788 C.ar    1  UNL1        0.1057
     11 C         150.2890  143.6851  152.9052 C.ar    1  UNL1        0.0185
     12 C         148.8902  143.1701  153.0725 C.ar    1  UNL1        0.0058
     13 C         148.6166  142.0344  154.0134 C.ar    1  UNL1        0.0537
     14 C         149.7418  141.4138  154.7870 C.ar    1  UNL1        0.0058
     15 C         151.1407  141.9288  154.6197 C.ar    1  UNL1        0.0185
     16 C         154.2120  144.0946  153.3442 C.3     1  UNL1        0.1816
     17 S         152.8131  143.5795  153.5115 S.O2    1  UNL1        0.0104
     18 O         152.3532  144.4648  152.3913 O.2     1  UNL1       -0.1686
     19 O         153.2730  142.6943  154.6317 O.2     1  UNL1       -0.1686
     20 C         144.2043  142.6141  159.2523 C.ar    1  UNL1        0.0541
     21 C         144.8066  142.2482  160.5764 C.ar    1  UNL1        0.0180
     22 C         144.0532  142.5219  161.8443 C.ar    1  UNL1        0.0382
     23 C         142.6976  143.1615  161.7880 C.ar    1  UNL1        0.1385
     24 C         142.0953  143.5273  160.4639 C.ar    1  UNL1        0.0382
     25 C         142.8486  143.2537  159.1960 C.ar    1  UNL1        0.0180
     26 O         141.9442  143.4351  163.0559 O.3     1  UNL1       -0.4791
     27 C         141.1675  142.3365  163.7189 C.3     1  UNL1        0.1687
     28 C         140.5721  142.5538  165.0784 C.3     1  UNL1        0.0609
     29 C         139.7954  141.4551  165.7414 C.3     1  UNL1        0.0758
     30 N         139.6141  140.1390  165.0448 N.3     1  UNL1       -0.2737
     31 C         140.2095  139.9217  163.6853 C.3     1  UNL1        0.0758
     32 C         140.9862  141.0204  163.0224 C.3     1  UNL1        0.0609
     33 C         138.8374  139.0403  165.7078 C.3     1  UNL1        0.0575
     34 C         138.5185  137.6139  165.3702 C.3     1  UNL1        0.0160
     35 C         137.7390  137.4864  166.6453 C.3     1  UNL1        0.0028
     36 C         138.0578  138.9127  166.9829 C.3     1  UNL1        0.0160
@<TRIPOS>BOND
     1    16    17    1
     2    17    18    2
     3    17    19    2
     4    17    10    1
     5    10    11   ar
     6    11    12   ar
     7    12    13   ar
     8    13     1    1
     9     1     2    2
    10     1     3   am
    11     3     4    1
    12     4     5    1
    13     5     6    1
    14     6    20    1
    15    20    21   ar
    16    21    22   ar
    17    22    23   ar
    18    23    26    1
    19    26    27    1
    20    27    28    1
    21    28    29    1
    22    29    30    1
    23    30    33    1
    24    33    34    1
    25    34    35    1
    26    35    36    1
    27    30    31    1
    28    31    32    1
    29    23    24   ar
    30    24    25   ar
    31     6     7   am
    32     7     8    2
    33     7     9    1
    34    13    14   ar
    35    14    15   ar
    36    15    10   ar
    37     9     3    1
    38    25    20   ar
    39    32    27    1
    40    36    33    1
