@<TRIPOS>MOLECULE
*****
 37 40 0 0 0
SMALL
GASTEIGER

@<TRIPOS>ATOM
      1 C         141.6767  138.9467  160.9642 C.ar    1  UNL1       -0.0223
      2 C         142.8721  139.7821  161.3152 C.ar    1  UNL1       -0.0030
      3 C         143.0389  140.3033  162.7118 C.ar    1  UNL1        0.0143
      4 C         142.0104  139.9891  163.7574 C.ar    1  UNL1        0.0502
      5 C         140.8150  139.1538  163.4064 C.ar    1  UNL1        0.0089
      6 C         140.6482  138.6326  162.0098 C.ar    1  UNL1       -0.0034
      7 C         141.0094  136.8620  155.3777 C.2     1  UNL1        0.2497
      8 O         139.6656  136.9141  154.7133 O.2     1  UNL1       -0.2730
      9 N         141.1763  137.3832  156.7743 N.am    1  UNL1       -0.2781
     10 C         142.5200  137.3311  157.4387 C.3     1  UNL1        0.0938
     11 C         142.6869  137.8523  158.8354 C.3     1  UNL1        0.0259
     12 C         141.5099  138.4256  159.5675 C.3     1  UNL1        0.0257
     13 C         140.1661  138.4776  158.9031 C.3     1  UNL1        0.0259
     14 C         139.9993  137.9564  157.5065 C.3     1  UNL1        0.0938
     15 C         142.1864  136.2888  154.6455 C.3     1  UNL1        0.2354
     16 C         142.0729  133.4845  153.5856 C.3     1  UNL1        0.1766
     17 S         142.1297  134.8867  154.1156 S.O2    1  UNL1        0.0007
     18 O         142.2638  134.3537  155.5113 O.2     1  UNL1       -0.1725
     19 O         141.9955  135.4196  152.7199 O.2     1  UNL1       -0.1725
     20 C         139.7864  138.8395  164.4520 C.2     1  UNL1       -0.0253
     21 C         139.0194  139.9498  165.1071 C.2     1  UNL1       -0.0303
     22 C         137.9909  139.6357  166.1527 C.3     1  UNL1        0.0257
     23 C         137.7292  138.2112  166.5433 C.3     1  UNL1        0.0050
     24 C         138.4962  137.1009  165.8883 C.3     1  UNL1        0.0050
     25 C         139.5248  137.4151  164.8426 C.3     1  UNL1        0.0261
     26 N         142.1772  140.5103  165.1540 N.am    1  UNL1       -0.2779
     27 C         142.6235  139.5887  166.2501 C.2     1  UNL1        0.2837
     28 O         142.9030  138.1459  165.9497 O.2     1  UNL1       -0.2665
     29 H         141.9938  141.4572  165.3512 H       1  UNL1        0.1553
     30 C         142.7903  140.1099  167.6467 C.ar    1  UNL1        0.1959
     31 N         142.9241  141.5513  168.0398 N.ar    1  UNL1       -0.2123
     32 C         143.0691  141.6134  169.5315 C.ar    1  UNL1        0.1678
     33 C         143.0250  140.2104  170.0604 C.ar    1  UNL1        0.1036
     34 N         142.8527  139.2811  168.8955 N.ar    1  UNL1       -0.3319
     35 H         142.7913  138.2997  168.9424 H       1  UNL1        0.1676
     36 C         143.2301  142.8597  170.3506 C.1     1  UNL1        0.1214
     37 N         143.3910  144.1059  171.1697 N.1     1  UNL1       -0.1892
@<TRIPOS>BOND
     1    16    17    1
     2    17    18    2
     3    17    19    2
     4    17    15    1
     5    15     7    1
     6     7     8    2
     7     7     9   am
     8     9    10    1
     9    10    11    1
    10    11    12    1
    11    12     1    1
    12     1     2   ar
    13     2     3   ar
    14     3     4   ar
    15     4    26    1
    16    26    27   am
    17    27    28    2
    18    27    30    1
    19    30    31   ar
    20    31    32   ar
    21    32    36    1
    22    36    37    3
    23    32    33   ar
    24    33    34   ar
    25     4     5   ar
    26     5    20    1
    27    20    21    2
    28    21    22    1
    29    22    23    1
    30    23    24    1
    31    24    25    1
    32     5     6   ar
    33    12    13    1
    34    13    14    1
    35    14     9    1
    36     6     1   ar
    37    34    30   ar
    38    25    20    1
    39    26    29    1
    40    34    35    1
@<TRIPOS>MOLECULE
*****
 37 40 0 0 0
SMALL
GASTEIGER

@<TRIPOS>ATOM
      1 C         140.9876  138.8688  161.1124 C.ar    1  UNL1       -0.0223
      2 C         140.2380  138.0043  162.0823 C.ar    1  UNL1       -0.0030
      3 C         140.2667  138.3224  163.5479 C.ar    1  UNL1        0.0143
      4 C         141.0450  139.5049  164.0436 C.ar    1  UNL1        0.0502
      5 C         141.7946  140.3694  163.0737 C.ar    1  UNL1        0.0089
      6 C         141.7659  140.0513  161.6081 C.ar    1  UNL1       -0.0034
      7 C         140.8727  137.5965  155.2500 C.2     1  UNL1        0.2497
      8 O         139.6083  137.7868  154.4658 O.2     1  UNL1       -0.2730
      9 N         140.9014  137.9146  156.7156 N.am    1  UNL1       -0.2781
     10 C         142.1659  137.7243  157.4997 C.3     1  UNL1        0.0938
     11 C         142.1946  138.0423  158.9653 C.3     1  UNL1        0.0259
     12 C         140.9589  138.5507  159.6468 C.3     1  UNL1        0.0257
     13 C         139.6944  138.7410  158.8627 C.3     1  UNL1        0.0259
     14 C         139.6657  138.4230  157.3971 C.3     1  UNL1        0.0938
     15 C         142.1085  137.0881  154.5685 C.3     1  UNL1        0.2354
     16 C         142.0401  134.4790  153.0893 C.3     1  UNL1        0.1766
     17 S         142.0743  135.7836  153.8289 S.O2    1  UNL1        0.0007
     18 O         142.1338  135.0432  155.1321 O.2     1  UNL1       -0.1725
     19 O         142.0148  136.5240  152.5257 O.2     1  UNL1       -0.1725
     20 C         142.5730  141.5520  163.5694 C.2     1  UNL1       -0.0253
     21 C         141.9000  142.8844  163.7170 C.2     1  UNL1       -0.0303
     22 C         142.6783  144.0670  164.2126 C.3     1  UNL1        0.0257
     23 C         144.1297  143.9172  164.5608 C.3     1  UNL1        0.0050
     24 C         144.8027  142.5848  164.4132 C.3     1  UNL1        0.0050
     25 C         144.0243  141.4022  163.9175 C.3     1  UNL1        0.0261
     26 N         141.0738  139.8230  165.5092 N.am    1  UNL1       -0.2779
     27 C         142.1103  139.1947  166.3929 C.2     1  UNL1        0.2837
     28 O         143.1182  138.2483  165.8109 O.2     1  UNL1       -0.2665
     29 H         140.4123  140.4441  165.8912 H       1  UNL1        0.1553
     30 C         142.1390  139.5128  167.8585 C.ar    1  UNL1        0.1959
     31 N         141.2864  140.5303  168.5567 N.ar    1  UNL1       -0.2123
     32 C         141.6458  140.5156  170.0130 C.ar    1  UNL1        0.1678
     33 C         142.7206  139.4889  170.2147 C.ar    1  UNL1        0.1036
     34 N         143.0255  138.8691  168.8832 N.ar    1  UNL1       -0.3319
     35 H         143.6906  138.1637  168.7119 H       1  UNL1        0.1676
     36 C         141.0373  141.3763  171.0801 C.1     1  UNL1        0.1214
     37 N         140.4288  142.2370  172.1473 N.1     1  UNL1       -0.1892
@<TRIPOS>BOND
     1    16    17    1
     2    17    18    2
     3    17    19    2
     4    17    15    1
     5    15     7    1
     6     7     8    2
     7     7     9   am
     8     9    10    1
     9    10    11    1
    10    11    12    1
    11    12     1    1
    12     1     2   ar
    13     2     3   ar
    14     3     4   ar
    15     4    26    1
    16    26    27   am
    17    27    28    2
    18    27    30    1
    19    30    31   ar
    20    31    32   ar
    21    32    36    1
    22    36    37    3
    23    32    33   ar
    24    33    34   ar
    25     4     5   ar
    26     5    20    1
    27    20    21    2
    28    21    22    1
    29    22    23    1
    30    23    24    1
    31    24    25    1
    32     5     6   ar
    33    12    13    1
    34    13    14    1
    35    14     9    1
    36     6     1   ar
    37    34    30   ar
    38    25    20    1
    39    26    29    1
    40    34    35    1
@<TRIPOS>MOLECULE
*****
 37 40 0 0 0
SMALL
GASTEIGER

@<TRIPOS>ATOM
      1 C         141.0450  138.8049  161.1552 C.ar    1  UNL1       -0.0223
      2 C         141.5974  137.8726  162.1922 C.ar    1  UNL1       -0.0030
      3 C         141.5607  138.2565  163.6418 C.ar    1  UNL1        0.0143
      4 C         140.9715  139.5728  164.0543 C.ar    1  UNL1        0.0502
      5 C         140.4190  140.5051  163.0173 C.ar    1  UNL1        0.0089
      6 C         140.4558  140.1212  161.5677 C.ar    1  UNL1       -0.0034
      7 C         141.1920  137.2691  155.3569 C.2     1  UNL1        0.2497
      8 O         139.9590  137.4050  154.5136 O.2     1  UNL1       -0.2730
      9 N         141.1552  137.6531  156.8065 N.am    1  UNL1       -0.2781
     10 C         142.3882  137.5172  157.6498 C.3     1  UNL1        0.0938
     11 C         142.3514  137.9011  159.0994 C.3     1  UNL1        0.0259
     12 C         141.0817  138.4210  159.7056 C.3     1  UNL1        0.0257
     13 C         139.8488  138.5568  158.8623 C.3     1  UNL1        0.0259
     14 C         139.8855  138.1729  157.4127 C.3     1  UNL1        0.0938
     15 C         142.4617  136.7493  154.7507 C.3     1  UNL1        0.2354
     16 C         143.5808  134.1130  155.6437 C.3     1  UNL1        0.1766
     17 S         143.0213  135.4312  155.1972 S.O2    1  UNL1        0.0007
     18 O         144.3777  136.0554  155.3401 O.2     1  UNL1       -0.1725
     19 O         141.6648  134.8070  155.0543 O.2     1  UNL1       -0.1725
     20 C         139.8297  141.8215  163.4298 C.2     1  UNL1       -0.0253
     21 C         138.3669  141.9222  163.7460 C.2     1  UNL1       -0.0303
     22 C         137.7777  143.2384  164.1585 C.3     1  UNL1        0.0257
     23 C         138.6512  144.4541  164.2547 C.3     1  UNL1        0.0050
     24 C         140.1140  144.3534  163.9385 C.3     1  UNL1        0.0050
     25 C         140.7033  143.0370  163.5260 C.3     1  UNL1        0.0261
     26 N         140.9347  139.9567  165.5039 N.am    1  UNL1       -0.2779
     27 C         139.7522  139.5849  166.3485 C.2     1  UNL1        0.2837
     28 O         138.6064  138.8291  165.7435 O.2     1  UNL1       -0.2665
     29 H         141.6867  140.4528  165.9009 H       1  UNL1        0.1553
     30 C         139.7154  139.9688  167.7980 C.ar    1  UNL1        0.1959
     31 N         140.7731  140.7370  168.5338 N.ar    1  UNL1       -0.2123
     32 C         140.3259  140.8950  169.9568 C.ar    1  UNL1        0.1678
     33 C         138.9919  140.2244  170.1006 C.ar    1  UNL1        0.1036
     34 N         138.6145  139.6520  168.7664 N.ar    1  UNL1       -0.3319
     35 H         137.7892  139.1556  168.5622 H       1  UNL1        0.1676
     36 C         141.0802  141.5997  171.0450 C.1     1  UNL1        0.1214
     37 N         141.8346  142.3045  172.1332 N.1     1  UNL1       -0.1892
@<TRIPOS>BOND
     1    16    17    1
     2    17    18    2
     3    17    19    2
     4    17    15    1
     5    15     7    1
     6     7     8    2
     7     7     9   am
     8     9    10    1
     9    10    11    1
    10    11    12    1
    11    12     1    1
    12     1     2   ar
    13     2     3   ar
    14     3     4   ar
    15     4    26    1
    16    26    27   am
    17    27    28    2
    18    27    30    1
    19    30    31   ar
    20    31    32   ar
    21    32    36    1
    22    36    37    3
    23    32    33   ar
    24    33    34   ar
    25     4     5   ar
    26     5    20    1
    27    20    21    2
    28    21    22    1
    29    22    23    1
    30    23    24    1
    31    24    25    1
    32     5     6   ar
    33    12    13    1
    34    13    14    1
    35    14     9    1
    36     6     1   ar
    37    34    30   ar
    38    25    20    1
    39    26    29    1
    40    34    35    1
@<TRIPOS>MOLECULE
*****
 37 40 0 0 0
SMALL
GASTEIGER

@<TRIPOS>ATOM
      1 C         140.8554  138.7556  161.0684 C.ar    1  UNL1       -0.0223
      2 C         141.3387  137.6509  161.9605 C.ar    1  UNL1       -0.0030
      3 C         141.3353  137.8334  163.4494 C.ar    1  UNL1        0.0143
      4 C         140.8486  139.1207  164.0460 C.ar    1  UNL1        0.0502
      5 C         140.3653  140.2254  163.1539 C.ar    1  UNL1        0.0089
      6 C         140.3687  140.0428  161.6650 C.ar    1  UNL1       -0.0034
      7 C         140.8691  138.0254  155.1130 C.2     1  UNL1        0.2497
      8 O         139.6603  138.4014  154.3085 O.2     1  UNL1       -0.2730
      9 N         140.8657  138.2079  156.6018 N.am    1  UNL1       -0.2781
     10 C         142.0745  137.8319  157.4063 C.3     1  UNL1        0.0938
     11 C         142.0711  138.0144  158.8952 C.3     1  UNL1        0.0259
     12 C         140.8589  138.5730  159.5795 C.3     1  UNL1        0.0257
     13 C         139.6500  138.9491  158.7750 C.3     1  UNL1        0.0259
     14 C         139.6534  138.7665  157.2862 C.3     1  UNL1        0.0938
     15 C         142.0814  137.4668  154.4286 C.3     1  UNL1        0.2354
     16 C         141.8485  134.9928  152.7478 C.3     1  UNL1        0.1766
     17 S         141.9649  136.2298  153.5882 S.O2    1  UNL1        0.0007
     18 O         141.8618  135.3955  154.8305 O.2     1  UNL1       -0.1725
     19 O         142.0681  137.0641  152.3459 O.2     1  UNL1       -0.1725
     20 C         139.8786  141.5127  163.7505 C.2     1  UNL1       -0.0253
     21 C         140.8594  142.5848  164.1230 C.2     1  UNL1       -0.0303
     22 C         140.3727  143.8721  164.7196 C.3     1  UNL1        0.0257
     23 C         138.9052  144.0873  164.9438 C.3     1  UNL1        0.0050
     24 C         137.9244  143.0152  164.5714 C.3     1  UNL1        0.0050
     25 C         138.4112  141.7279  163.9747 C.3     1  UNL1        0.0261
     26 N         140.8452  139.3032  165.5349 N.am    1  UNL1       -0.2779
     27 C         142.1241  139.6109  166.2557 C.2     1  UNL1        0.2837
     28 O         143.4065  139.7361  165.4877 O.2     1  UNL1       -0.2665
     29 H         140.0035  139.2210  166.0390 H       1  UNL1        0.1553
     30 C         142.1207  139.7935  167.7446 C.ar    1  UNL1        0.1959
     31 N         141.3117  140.8001  168.5076 N.ar    1  UNL1       -0.2123
     32 C         141.6167  140.6302  169.9664 C.ar    1  UNL1        0.1678
     33 C         142.6142  139.5186  170.1050 C.ar    1  UNL1        0.1036
     34 N         142.9257  139.0014  168.7318 N.ar    1  UNL1       -0.3319
     35 H         143.5491  138.2704  168.5164 H       1  UNL1        0.1676
     36 C         141.0276  141.4312  171.0894 C.1     1  UNL1        0.1214
     37 N         140.4386  142.2322  172.2126 N.1     1  UNL1       -0.1892
@<TRIPOS>BOND
     1    16    17    1
     2    17    18    2
     3    17    19    2
     4    17    15    1
     5    15     7    1
     6     7     8    2
     7     7     9   am
     8     9    10    1
     9    10    11    1
    10    11    12    1
    11    12     1    1
    12     1     2   ar
    13     2     3   ar
    14     3     4   ar
    15     4    26    1
    16    26    27   am
    17    27    28    2
    18    27    30    1
    19    30    31   ar
    20    31    32   ar
    21    32    36    1
    22    36    37    3
    23    32    33   ar
    24    33    34   ar
    25     4     5   ar
    26     5    20    1
    27    20    21    2
    28    21    22    1
    29    22    23    1
    30    23    24    1
    31    24    25    1
    32     5     6   ar
    33    12    13    1
    34    13    14    1
    35    14     9    1
    36     6     1   ar
    37    34    30   ar
    38    25    20    1
    39    26    29    1
    40    34    35    1
@<TRIPOS>MOLECULE
*****
 37 40 0 0 0
SMALL
GASTEIGER

@<TRIPOS>ATOM
      1 C         143.4008  141.1583  160.7732 C.ar    1  UNL1       -0.0223
      2 C         144.0025  140.2652  161.8174 C.ar    1  UNL1       -0.0030
      3 C         143.3679  140.1626  163.1727 C.ar    1  UNL1        0.0143
      4 C         142.1318  140.9531  163.4838 C.ar    1  UNL1        0.0502
      5 C         141.5301  141.8463  162.4397 C.ar    1  UNL1        0.0089
      6 C         142.1647  141.9488  161.0844 C.ar    1  UNL1       -0.0034
      7 C         145.9390  141.5687  155.3520 C.2     1  UNL1        0.2497
      8 O         145.6507  140.5306  154.3084 O.2     1  UNL1       -0.2730
      9 N         145.3044  141.4661  156.7073 N.am    1  UNL1       -0.2781
     10 C         145.5928  142.5041  157.7510 C.3     1  UNL1        0.0938
     11 C         144.9582  142.4015  159.1063 C.3     1  UNL1        0.0259
     12 C         144.0354  141.2609  159.4179 C.3     1  UNL1        0.0257
     13 C         143.7470  140.2228  158.3743 C.3     1  UNL1        0.0259
     14 C         144.3816  140.3254  157.0190 C.3     1  UNL1        0.0938
     15 C         146.8618  142.7093  155.0404 C.3     1  UNL1        0.2354
     16 C         149.5803  142.1688  153.8925 C.3     1  UNL1        0.1766
     17 S         148.2211  142.4391  154.4664 S.O2    1  UNL1        0.0007
     18 O         147.8186  143.1206  153.1923 O.2     1  UNL1       -0.1725
     19 O         148.6236  141.7575  155.7406 O.2     1  UNL1       -0.1725
     20 C         140.2939  142.6369  162.7508 C.2     1  UNL1       -0.0253
     21 C         140.4087  143.9824  163.4037 C.2     1  UNL1       -0.0303
     22 C         139.1725  144.7730  163.7148 C.3     1  UNL1        0.0257
     23 C         137.8215  144.2181  163.3730 C.3     1  UNL1        0.0050
     24 C         137.7067  142.8725  162.7201 C.3     1  UNL1        0.0050
     25 C         138.9429  142.0819  162.4090 C.3     1  UNL1        0.0261
     26 N         141.4972  140.8505  164.8391 N.am    1  UNL1       -0.2779
     27 C         141.9767  141.7246  165.9598 C.2     1  UNL1        0.2837
     28 O         143.0907  142.7014  165.7253 O.2     1  UNL1       -0.2665
     29 H         140.7661  140.2095  164.9931 H       1  UNL1        0.1553
     30 C         141.3421  141.6220  167.3151 C.ar    1  UNL1        0.1959
     31 N         140.1661  140.7634  167.6754 N.ar    1  UNL1       -0.2123
     32 C         139.8694  140.9708  169.1310 C.ar    1  UNL1        0.1678
     33 C         140.8620  141.9576  169.6705 C.ar    1  UNL1        0.1036
     34 N         141.7722  142.3601  168.5482 N.ar    1  UNL1       -0.3319
     35 H         142.5205  142.9969  168.6100 H       1  UNL1        0.1676
     36 C         138.7726  140.3078  169.9104 C.1     1  UNL1        0.1214
     37 N         137.6759  139.6448  170.6899 N.1     1  UNL1       -0.1892
@<TRIPOS>BOND
     1    16    17    1
     2    17    18    2
     3    17    19    2
     4    17    15    1
     5    15     7    1
     6     7     8    2
     7     7     9   am
     8     9    10    1
     9    10    11    1
    10    11    12    1
    11    12     1    1
    12     1     2   ar
    13     2     3   ar
    14     3     4   ar
    15     4    26    1
    16    26    27   am
    17    27    28    2
    18    27    30    1
    19    30    31   ar
    20    31    32   ar
    21    32    36    1
    22    36    37    3
    23    32    33   ar
    24    33    34   ar
    25     4     5   ar
    26     5    20    1
    27    20    21    2
    28    21    22    1
    29    22    23    1
    30    23    24    1
    31    24    25    1
    32     5     6   ar
    33    12    13    1
    34    13    14    1
    35    14     9    1
    36     6     1   ar
    37    34    30   ar
    38    25    20    1
    39    26    29    1
    40    34    35    1
@<TRIPOS>MOLECULE
*****
 37 40 0 0 0
SMALL
GASTEIGER

@<TRIPOS>ATOM
      1 C         139.3490  141.3724  164.3007 C.ar    1  UNL1       -0.0223
      2 C         138.1392  142.0814  163.7681 C.ar    1  UNL1       -0.0030
      3 C         137.9372  142.2113  162.2875 C.ar    1  UNL1        0.0143
      4 C         138.9450  141.6322  161.3394 C.ar    1  UNL1        0.0502
      5 C         140.1548  140.9232  161.8720 C.ar    1  UNL1        0.0089
      6 C         140.3568  140.7933  163.3526 C.ar    1  UNL1       -0.0034
      7 C         140.1568  140.8529  170.2233 C.2     1  UNL1        0.2497
      8 O         139.6157  139.6588  170.9522 O.2     1  UNL1       -0.2730
      9 N         139.9548  140.9828  168.7427 N.am    1  UNL1       -0.2781
     10 C         140.4959  142.1769  168.0138 C.3     1  UNL1        0.0938
     11 C         140.2940  142.3068  166.5332 C.3     1  UNL1        0.0259
     12 C         139.5509  141.2425  165.7814 C.3     1  UNL1        0.0257
     13 C         139.0099  140.0484  166.5102 C.3     1  UNL1        0.0259
     14 C         139.2118  139.9185  167.9909 C.3     1  UNL1        0.0938
     15 C         140.8998  141.9171  170.9751 C.3     1  UNL1        0.2354
     16 C         143.7028  142.6344  170.1822 C.3     1  UNL1        0.1766
     17 S         142.3013  142.2758  170.5787 S.O2    1  UNL1        0.0007
     18 O         141.9337  143.7299  170.5944 O.2     1  UNL1       -0.1725
     19 O         142.6690  140.8216  170.5629 O.2     1  UNL1       -0.1725
     20 C         141.1628  140.3441  160.9239 C.2     1  UNL1       -0.0253
     21 C         142.3206  141.1769  160.4595 C.2     1  UNL1       -0.0303
     22 C         143.3285  140.5979  159.5115 C.3     1  UNL1        0.0257
     23 C         143.1786  139.1859  159.0278 C.3     1  UNL1        0.0050
     24 C         142.0207  138.3530  159.4922 C.3     1  UNL1        0.0050
     25 C         141.0128  138.9321  160.4403 C.3     1  UNL1        0.0261
     26 N         138.7431  141.7620  159.8587 N.am    1  UNL1       -0.2779
     27 C         137.9407  140.7336  159.1182 C.2     1  UNL1        0.2837
     28 O         137.3403  139.5752  159.8582 O.2     1  UNL1       -0.2665
     29 H         139.1371  142.5223  159.3730 H       1  UNL1        0.1553
     30 C         137.7388  140.8635  157.6375 C.ar    1  UNL1        0.1959
     31 N         136.4347  140.7226  156.9098 N.ar    1  UNL1       -0.2123
     32 C         136.6954  140.9291  155.4471 C.ar    1  UNL1        0.1678
     33 C         138.1606  141.1976  155.2708 C.ar    1  UNL1        0.1036
     34 N         138.8055  141.1571  156.6245 N.ar    1  UNL1       -0.3319
     35 H         139.7611  141.2984  156.8148 H       1  UNL1        0.1676
     36 C         135.6709  140.8763  154.3529 C.1     1  UNL1        0.1214
     37 N         134.6463  140.8235  153.2586 N.1     1  UNL1       -0.1892
@<TRIPOS>BOND
     1    16    17    1
     2    17    18    2
     3    17    19    2
     4    17    15    1
     5    15     7    1
     6     7     8    2
     7     7     9   am
     8     9    10    1
     9    10    11    1
    10    11    12    1
    11    12     1    1
    12     1     2   ar
    13     2     3   ar
    14     3     4   ar
    15     4    26    1
    16    26    27   am
    17    27    28    2
    18    27    30    1
    19    30    31   ar
    20    31    32   ar
    21    32    36    1
    22    36    37    3
    23    32    33   ar
    24    33    34   ar
    25     4     5   ar
    26     5    20    1
    27    20    21    2
    28    21    22    1
    29    22    23    1
    30    23    24    1
    31    24    25    1
    32     5     6   ar
    33    12    13    1
    34    13    14    1
    35    14     9    1
    36     6     1   ar
    37    34    30   ar
    38    25    20    1
    39    26    29    1
    40    34    35    1
@<TRIPOS>MOLECULE
*****
 37 40 0 0 0
SMALL
GASTEIGER

@<TRIPOS>ATOM
      1 C         140.2579  139.4060  163.8676 C.ar    1  UNL1       -0.0223
      2 C         139.7851  138.1186  163.2602 C.ar    1  UNL1       -0.0030
      3 C         140.0025  137.8539  161.7998 C.ar    1  UNL1        0.0143
      4 C         140.6926  138.8767  160.9469 C.ar    1  UNL1        0.0502
      5 C         141.1654  140.1641  161.5543 C.ar    1  UNL1        0.0089
      6 C         140.9480  140.4287  163.0147 C.ar    1  UNL1       -0.0034
      7 C         139.3884  140.4645  169.7092 C.2     1  UNL1        0.2497
      8 O         138.1856  139.8975  170.4032 O.2     1  UNL1       -0.2730
      9 N         139.6058  140.1999  168.2488 N.am    1  UNL1       -0.2781
     10 C         140.8086  140.7669  167.5547 C.3     1  UNL1        0.0938
     11 C         141.0260  140.5022  166.0944 C.3     1  UNL1        0.0259
     12 C         140.0405  139.6706  165.3280 C.3     1  UNL1        0.0257
     13 C         138.8377  139.1036  166.0221 C.3     1  UNL1        0.0259
     14 C         138.6204  139.3683  167.4825 C.3     1  UNL1        0.0938
     15 C         140.3738  141.2961  170.4755 C.3     1  UNL1        0.2354
     16 C         140.3902  144.2788  170.1538 C.3     1  UNL1        0.1766
     17 S         140.3820  142.7875  170.3147 S.O2    1  UNL1        0.0007
     18 O         141.7695  142.7188  169.7488 O.2     1  UNL1       -0.1725
     19 O         138.9945  142.8561  170.8805 O.2     1  UNL1       -0.1725
     20 C         141.8556  141.1870  160.7013 C.2     1  UNL1       -0.0253
     21 C         143.3519  141.1896  160.5963 C.2     1  UNL1       -0.0303
     22 C         144.0421  142.2124  159.7434 C.3     1  UNL1        0.0257
     23 C         143.2359  143.2326  158.9955 C.3     1  UNL1        0.0050
     24 C         141.7396  143.2300  159.1005 C.3     1  UNL1        0.0050
     25 C         141.0494  142.2071  159.9534 C.3     1  UNL1        0.0261
     26 N         140.9100  138.6121  159.4865 N.am    1  UNL1       -0.2779
     27 C         142.1791  137.9605  159.0231 C.2     1  UNL1        0.2837
     28 O         143.2309  137.5735  160.0202 O.2     1  UNL1       -0.2665
     29 H         140.2197  138.8660  158.8321 H       1  UNL1        0.1553
     30 C         142.3965  137.6958  157.5627 C.ar    1  UNL1        0.1959
     31 N         141.4650  136.9503  156.6536 N.ar    1  UNL1       -0.2123
     32 C         142.0763  136.9239  155.2840 C.ar    1  UNL1        0.1678
     33 C         143.3856  137.6532  155.3468 C.ar    1  UNL1        0.1036
     34 N         143.5835  138.1303  156.7551 N.ar    1  UNL1       -0.3319
     35 H         144.3567  138.6392  157.0904 H       1  UNL1        0.1676
     36 C         141.4827  136.2812  154.0657 C.1     1  UNL1        0.1214
     37 N         140.8890  135.6385  152.8474 N.1     1  UNL1       -0.1892
@<TRIPOS>BOND
     1    16    17    1
     2    17    18    2
     3    17    19    2
     4    17    15    1
     5    15     7    1
     6     7     8    2
     7     7     9   am
     8     9    10    1
     9    10    11    1
    10    11    12    1
    11    12     1    1
    12     1     2   ar
    13     2     3   ar
    14     3     4   ar
    15     4    26    1
    16    26    27   am
    17    27    28    2
    18    27    30    1
    19    30    31   ar
    20    31    32   ar
    21    32    36    1
    22    36    37    3
    23    32    33   ar
    24    33    34   ar
    25     4     5   ar
    26     5    20    1
    27    20    21    2
    28    21    22    1
    29    22    23    1
    30    23    24    1
    31    24    25    1
    32     5     6   ar
    33    12    13    1
    34    13    14    1
    35    14     9    1
    36     6     1   ar
    37    34    30   ar
    38    25    20    1
    39    26    29    1
    40    34    35    1
@<TRIPOS>MOLECULE
*****
 37 40 0 0 0
SMALL
GASTEIGER

@<TRIPOS>ATOM
      1 C         143.5166  141.2459  161.1094 C.ar    1  UNL1       -0.0223
      2 C         144.4844  140.5934  162.0515 C.ar    1  UNL1       -0.0030
      3 C         144.2150  140.6004  163.5272 C.ar    1  UNL1        0.0143
      4 C         142.9779  141.2598  164.0606 C.ar    1  UNL1        0.0502
      5 C         142.0101  141.9123  163.1185 C.ar    1  UNL1        0.0089
      6 C         142.2794  141.9053  161.6429 C.ar    1  UNL1       -0.0034
      7 C         144.5939  141.2180  155.2070 C.2     1  UNL1        0.2497
      8 O         144.0796  140.0949  154.3560 O.2     1  UNL1       -0.2730
      9 N         144.3246  141.2249  156.6826 N.am    1  UNL1       -0.2781
     10 C         144.8389  142.3480  157.5336 C.3     1  UNL1        0.0938
     11 C         144.5696  142.3550  159.0092 C.3     1  UNL1        0.0259
     12 C         143.7859  141.2389  159.6338 C.3     1  UNL1        0.0257
     13 C         143.2716  140.1159  158.7828 C.3     1  UNL1        0.0259
     14 C         143.5409  140.1089  157.3072 C.3     1  UNL1        0.0938
     15 C         145.3776  142.3340  154.5824 C.3     1  UNL1        0.2354
     16 C         147.8978  141.7338  153.0697 C.3     1  UNL1        0.1766
     17 S         146.6377  142.0339  153.8260 S.O2    1  UNL1        0.0007
     18 O         147.3556  141.7877  155.1199 O.2     1  UNL1       -0.1725
     19 O         145.9198  142.2801  152.5322 O.2     1  UNL1       -0.1725
     20 C         140.7729  142.5717  163.6520 C.2     1  UNL1       -0.0253
     21 C         139.4976  141.7907  163.7686 C.2     1  UNL1       -0.0303
     22 C         138.2604  142.4501  164.3020 C.3     1  UNL1        0.0257
     23 C         138.2985  143.8906  164.7189 C.3     1  UNL1        0.0050
     24 C         139.5739  144.6716  164.6022 C.3     1  UNL1        0.0050
     25 C         140.8111  144.0121  164.0688 C.3     1  UNL1        0.0261
     26 N         142.7086  141.2668  165.5362 N.am    1  UNL1       -0.2779
     27 C         142.7677  139.9865  166.3155 C.2     1  UNL1        0.2837
     28 O         143.0962  138.6991  165.6191 O.2     1  UNL1       -0.2665
     29 H         142.4930  142.1117  165.9933 H       1  UNL1        0.1553
     30 C         142.4984  139.9935  167.7911 C.ar    1  UNL1        0.1959
     31 N         141.7613  141.0584  168.5478 N.ar    1  UNL1       -0.2123
     32 C         141.7262  140.6598  169.9935 C.ar    1  UNL1        0.1678
     33 C         142.4416  139.3485  170.1302 C.ar    1  UNL1        0.1036
     34 N         142.9188  138.9366  168.7691 N.ar    1  UNL1       -0.3319
     35 H         143.4200  138.1167  168.5552 H       1  UNL1        0.1676
     36 C         141.0879  141.4362  171.1068 C.1     1  UNL1        0.1214
     37 N         140.4495  142.2126  172.2202 N.1     1  UNL1       -0.1892
@<TRIPOS>BOND
     1    16    17    1
     2    17    18    2
     3    17    19    2
     4    17    15    1
     5    15     7    1
     6     7     8    2
     7     7     9   am
     8     9    10    1
     9    10    11    1
    10    11    12    1
    11    12     1    1
    12     1     2   ar
    13     2     3   ar
    14     3     4   ar
    15     4    26    1
    16    26    27   am
    17    27    28    2
    18    27    30    1
    19    30    31   ar
    20    31    32   ar
    21    32    36    1
    22    36    37    3
    23    32    33   ar
    24    33    34   ar
    25     4     5   ar
    26     5    20    1
    27    20    21    2
    28    21    22    1
    29    22    23    1
    30    23    24    1
    31    24    25    1
    32     5     6   ar
    33    12    13    1
    34    13    14    1
    35    14     9    1
    36     6     1   ar
    37    34    30   ar
    38    25    20    1
    39    26    29    1
    40    34    35    1
@<TRIPOS>MOLECULE
*****
 37 40 0 0 0
SMALL
GASTEIGER

@<TRIPOS>ATOM
      1 C         139.5501  139.7142  164.1619 C.ar    1  UNL1       -0.0223
      2 C         138.1647  139.4272  163.6638 C.ar    1  UNL1       -0.0030
      3 C         137.8995  139.3460  162.1897 C.ar    1  UNL1        0.0143
      4 C         139.0197  139.5518  161.2136 C.ar    1  UNL1        0.0502
      5 C         140.4052  139.8388  161.7117 C.ar    1  UNL1        0.0089
      6 C         140.6704  139.9200  163.1859 C.ar    1  UNL1       -0.0034
      7 C         140.6110  140.0391  170.0584 C.2     1  UNL1        0.2497
      8 O         139.5072  139.7615  171.0354 O.2     1  UNL1       -0.2730
      9 N         140.3457  139.9579  168.5843 N.am    1  UNL1       -0.2781
     10 C         141.4495  140.2355  167.6073 C.3     1  UNL1        0.0938
     11 C         141.1843  140.1543  166.1331 C.3     1  UNL1        0.0259
     12 C         139.8153  139.7954  165.6360 C.3     1  UNL1        0.0257
     13 C         138.7116  139.5178  166.6130 C.3     1  UNL1        0.0259
     14 C         138.9768  139.5990  168.0872 C.3     1  UNL1        0.0938
     15 C         141.9799  140.3979  170.5555 C.3     1  UNL1        0.2354
     16 C         142.8143  143.2756  170.7068 C.3     1  UNL1        0.1766
     17 S         142.3971  141.8367  170.6312 S.O2    1  UNL1        0.0007
     18 O         143.5175  141.5623  169.6723 O.2     1  UNL1       -0.1725
     19 O         141.2767  142.1112  171.5900 O.2     1  UNL1       -0.1725
     20 C         141.5255  140.0446  160.7357 C.2     1  UNL1       -0.0253
     21 C         141.8895  141.4308  160.2932 C.2     1  UNL1       -0.0303
     22 C         143.0097  141.6367  159.3172 C.3     1  UNL1        0.0257
     23 C         143.7661  140.4562  158.7836 C.3     1  UNL1        0.0050
     24 C         143.4021  139.0700  159.2261 C.3     1  UNL1        0.0050
     25 C         142.2817  138.8642  160.2022 C.3     1  UNL1        0.0261
     26 N         138.7545  139.4706  159.7395 N.am    1  UNL1       -0.2779
     27 C         138.3738  140.7048  158.9768 C.2     1  UNL1        0.2837
     28 O         138.2582  142.0203  159.6883 O.2     1  UNL1       -0.2665
     29 H         138.8304  138.6072  159.2725 H       1  UNL1        0.1553
     30 C         138.1086  140.6235  157.5027 C.ar    1  UNL1        0.1959
     31 N         136.7669  140.7329  156.8409 N.ar    1  UNL1       -0.2123
     32 C         136.9676  140.5956  155.3607 C.ar    1  UNL1        0.1678
     33 C         138.4333  140.4015  155.1077 C.ar    1  UNL1        0.1036
     34 N         139.1385  140.4187  156.4315 N.ar    1  UNL1       -0.3319
     35 H         140.1072  140.3140  156.5726 H       1  UNL1        0.1676
     36 C         135.8916  140.6441  154.3168 C.1     1  UNL1        0.1214
     37 N         134.8156  140.6924  153.2729 N.1     1  UNL1       -0.1892
@<TRIPOS>BOND
     1    16    17    1
     2    17    18    2
     3    17    19    2
     4    17    15    1
     5    15     7    1
     6     7     8    2
     7     7     9   am
     8     9    10    1
     9    10    11    1
    10    11    12    1
    11    12     1    1
    12     1     2   ar
    13     2     3   ar
    14     3     4   ar
    15     4    26    1
    16    26    27   am
    17    27    28    2
    18    27    30    1
    19    30    31   ar
    20    31    32   ar
    21    32    36    1
    22    36    37    3
    23    32    33   ar
    24    33    34   ar
    25     4     5   ar
    26     5    20    1
    27    20    21    2
    28    21    22    1
    29    22    23    1
    30    23    24    1
    31    24    25    1
    32     5     6   ar
    33    12    13    1
    34    13    14    1
    35    14     9    1
    36     6     1   ar
    37    34    30   ar
    38    25    20    1
    39    26    29    1
    40    34    35    1
