@<TRIPOS>MOLECULE
*****
 40 45 0 0 0
SMALL
GASTEIGER

@<TRIPOS>ATOM
      1 N         142.6202  140.7888  165.8242 N.3     1  UNL1       -0.2676
      2 C         141.4448  141.5010  165.2235 C.3     1  UNL1        0.0746
      3 C         141.4621  141.8863  163.7739 C.3     1  UNL1        0.0449
      4 C         142.6548  141.5594  162.9252 C.3     1  UNL1        0.1391
      5 C         143.8303  140.8473  163.5259 C.3     1  UNL1        0.0449
      6 C         143.8130  140.4620  164.9755 C.3     1  UNL1        0.0746
      7 C         143.7712  141.3006  161.9573 C.2     1  UNL1        0.2529
      8 O         145.0663  140.6110  162.2691 O.2     1  UNL1       -0.2724
      9 N         143.3651  141.8525  160.6228 N.am    1  UNL1       -0.1907
     10 C         141.9977  142.4524  160.7660 C.2     1  UNL1        0.3219
     11 O         141.2080  143.1167  159.6775 O.2     1  UNL1       -0.2512
     12 N         141.5588  142.2713  162.1889 N.am    1  UNL1       -0.2222
     13 C         140.2531  142.7227  162.7730 C.ar    1  UNL1        0.1453
     14 C         139.0568  141.8192  162.7233 C.ar    1  UNL1        0.0922
     15 C         137.7511  142.2707  163.3075 C.ar    1  UNL1        0.2259
     16 O         136.5548  141.3672  163.2577 O.3     1  UNL1       -0.4919
     17 N         137.6416  143.6258  163.9414 N.ar    1  UNL1       -0.1894
     18 C         138.8379  144.5293  163.9911 C.ar    1  UNL1        0.2027
     19 N         140.1436  144.0778  163.4070 N.ar    1  UNL1       -0.2084
     20 H         136.6231  140.5207  162.8617 H       1  UNL1        0.2938
     21 C         144.1828  141.8116  159.3660 C.ar    1  UNL1        0.0622
     22 C         145.2826  142.8092  159.1540 C.ar    1  UNL1        0.0150
     23 C         146.1003  142.7683  157.8971 C.ar    1  UNL1       -0.0030
     24 C         145.8181  141.7298  156.8523 C.ar    1  UNL1       -0.0224
     25 C         144.7183  140.7321  157.0643 C.ar    1  UNL1       -0.0030
     26 C         143.9006  140.7730  158.3211 C.ar    1  UNL1        0.0150
     27 C         146.6358  141.6889  155.5954 C.3     1  UNL1        0.0223
     28 C         145.9863  141.3399  154.2891 C.3     1  UNL1        0.0044
     29 C         146.8040  141.2990  153.0323 C.3     1  UNL1        0.0003
     30 C         148.2712  141.6072  153.0817 C.3     1  UNL1        0.0000
     31 C         148.9207  141.9562  154.3879 C.3     1  UNL1        0.0003
     32 C         148.1030  141.9971  155.6448 C.3     1  UNL1        0.0044
     33 C         142.6030  140.4035  167.2738 C.3     1  UNL1        0.1183
     34 C         139.7375  139.8842  167.9947 C.3     1  UNL1        0.0323
     35 C         140.4780  141.0207  168.6352 C.ar    1  UNL1       -0.0069
     36 C         139.7857  141.8975  169.6362 C.ar    1  UNL1       -0.0015
     37 C         140.5261  143.0339  170.2767 C.ar    1  UNL1        0.0203
     38 C         141.9588  143.2936  169.9163 C.ar    1  UNL1        0.0985
     39 N         142.6511  142.4167  168.9153 N.ar    1  UNL1       -0.2471
     40 C         141.9107  141.2803  168.2748 C.ar    1  UNL1        0.0712
@<TRIPOS>BOND
     1    34    35    1
     2    35    36   ar
     3    36    37   ar
     4    37    38   ar
     5    38    39   ar
     6    39    40   ar
     7    40    33    1
     8    33     1    1
     9     1     2    1
    10     2     3    1
    11     3     4    1
    12     4     5    1
    13     5     6    1
    14     4     7    1
    15     7     8    2
    16     7     9   am
    17     9    21    1
    18    21    22   ar
    19    22    23   ar
    20    23    24   ar
    21    24    27    1
    22    27    28    1
    23    28    29    1
    24    29    30    1
    25    30    31    1
    26    31    32    1
    27    24    25   ar
    28    25    26   ar
    29     9    10   am
    30    10    11    2
    31    10    12   am
    32    12    13    1
    33    13    14   ar
    34    14    15   ar
    35    15    16    1
    36    15    17   ar
    37    17    18   ar
    38    18    19   ar
    39    40    35   ar
    40     6     1    1
    41    26    21   ar
    42    19    13   ar
    43    12     4    1
    44    32    27    1
    45    16    20    1
@<TRIPOS>MOLECULE
*****
 40 45 0 0 0
SMALL
GASTEIGER

@<TRIPOS>ATOM
      1 N         141.7358  139.6768  165.9451 N.3     1  UNL1       -0.2676
      2 C         141.0800  140.9035  165.3840 C.3     1  UNL1        0.0746
      3 C         140.7986  140.9976  163.9137 C.3     1  UNL1        0.0449
      4 C         141.1731  139.8649  163.0044 C.3     1  UNL1        0.1391
      5 C         141.8289  138.6381  163.5655 C.3     1  UNL1        0.0449
      6 C         142.1103  138.5441  165.0359 C.3     1  UNL1        0.0746
      7 C         141.4890  138.8181  161.9776 C.2     1  UNL1        0.2529
      8 O         142.1416  137.4934  162.2407 O.2     1  UNL1       -0.2724
      9 N         141.0375  139.3285  160.6412 N.am    1  UNL1       -0.1907
     10 C         140.4426  140.6908  160.8422 C.2     1  UNL1        0.3219
     11 O         139.8654  141.5676  159.7709 O.2     1  UNL1       -0.2512
     12 N         140.5264  141.0223  162.3027 N.am    1  UNL1       -0.2222
     13 C         140.0476  142.2888  162.9483 C.ar    1  UNL1        0.1453
     14 C         140.9628  143.4732  163.0462 C.ar    1  UNL1        0.0922
     15 C         140.4840  144.7396  163.6918 C.ar    1  UNL1        0.2259
     16 O         141.3992  145.9240  163.7897 O.3     1  UNL1       -0.4919
     17 N         139.0899  144.8217  164.2395 N.ar    1  UNL1       -0.1894
     18 C         138.1747  143.6373  164.1416 C.ar    1  UNL1        0.2027
     19 N         138.6536  142.3709  163.4960 N.ar    1  UNL1       -0.2084
     20 H         142.2700  145.8728  163.4476 H       1  UNL1        0.2938
     21 C         141.1595  138.6039  159.3335 C.ar    1  UNL1        0.0622
     22 C         139.9461  138.3911  158.4779 C.ar    1  UNL1        0.0150
     23 C         140.0681  137.6665  157.1703 C.ar    1  UNL1       -0.0030
     24 C         141.4035  137.1547  156.7181 C.ar    1  UNL1       -0.0224
     25 C         142.6171  137.3676  157.5738 C.ar    1  UNL1       -0.0030
     26 C         142.4951  138.0922  158.8814 C.ar    1  UNL1        0.0150
     27 C         141.5256  136.4302  155.4105 C.3     1  UNL1        0.0223
     28 C         141.5332  134.9304  155.3819 C.3     1  UNL1        0.0044
     29 C         141.6553  134.2058  154.0742 C.3     1  UNL1        0.0003
     30 C         141.7696  134.9810  152.7950 C.3     1  UNL1        0.0000
     31 C         141.7619  136.4807  152.8236 C.3     1  UNL1        0.0003
     32 C         141.6399  137.2053  154.1314 C.3     1  UNL1        0.0044
     33 C         142.0172  139.5827  167.4155 C.3     1  UNL1        0.1183
     34 C         143.0519  142.2719  168.2507 C.3     1  UNL1        0.0323
     35 C         141.7523  141.7642  168.8015 C.ar    1  UNL1       -0.0069
     36 C         140.9701  142.6010  169.7699 C.ar    1  UNL1       -0.0015
     37 C         139.6706  142.0933  170.3207 C.ar    1  UNL1        0.0203
     38 C         139.1532  140.7487  169.9031 C.ar    1  UNL1        0.0985
     39 N         139.9355  139.9118  168.9347 N.ar    1  UNL1       -0.2471
     40 C         141.2350  140.4195  168.3839 C.ar    1  UNL1        0.0712
@<TRIPOS>BOND
     1    34    35    1
     2    35    36   ar
     3    36    37   ar
     4    37    38   ar
     5    38    39   ar
     6    39    40   ar
     7    40    33    1
     8    33     1    1
     9     1     2    1
    10     2     3    1
    11     3     4    1
    12     4     5    1
    13     5     6    1
    14     4     7    1
    15     7     8    2
    16     7     9   am
    17     9    21    1
    18    21    22   ar
    19    22    23   ar
    20    23    24   ar
    21    24    27    1
    22    27    28    1
    23    28    29    1
    24    29    30    1
    25    30    31    1
    26    31    32    1
    27    24    25   ar
    28    25    26   ar
    29     9    10   am
    30    10    11    2
    31    10    12   am
    32    12    13    1
    33    13    14   ar
    34    14    15   ar
    35    15    16    1
    36    15    17   ar
    37    17    18   ar
    38    18    19   ar
    39    40    35   ar
    40     6     1    1
    41    26    21   ar
    42    19    13   ar
    43    12     4    1
    44    32    27    1
    45    16    20    1
@<TRIPOS>MOLECULE
*****
 40 45 0 0 0
SMALL
GASTEIGER

@<TRIPOS>ATOM
      1 N         140.4376  140.1648  165.6930 N.3     1  UNL1       -0.2676
      2 C         141.0907  141.3597  165.0641 C.3     1  UNL1        0.0746
      3 C         141.4329  141.3455  163.6038 C.3     1  UNL1        0.0449
      4 C         141.1219  140.1364  162.7723 C.3     1  UNL1        0.1391
      5 C         140.4688  138.9415  163.4011 C.3     1  UNL1        0.0449
      6 C         140.1266  138.9557  164.8615 C.3     1  UNL1        0.0746
      7 C         140.8727  139.0052  161.8192 C.2     1  UNL1        0.2529
      8 O         140.2376  137.6895  162.1592 O.2     1  UNL1       -0.2724
      9 N         141.3702  139.4207  160.4664 N.am    1  UNL1       -0.1907
     10 C         141.9269  140.8087  160.5834 C.2     1  UNL1        0.3219
     11 O         142.5309  141.6130  159.4708 O.2     1  UNL1       -0.2512
     12 N         141.7734  141.2510  162.0084 N.am    1  UNL1       -0.2222
     13 C         142.1970  142.5754  162.5710 C.ar    1  UNL1        0.1453
     14 C         141.2793  143.7582  162.4775 C.ar    1  UNL1        0.0922
     15 C         141.7030  145.0825  163.0401 C.ar    1  UNL1        0.2259
     16 O         140.7853  146.2653  162.9466 O.3     1  UNL1       -0.4919
     17 N         143.0445  145.2242  163.6963 N.ar    1  UNL1       -0.1894
     18 C         143.9622  144.0414  163.7898 C.ar    1  UNL1        0.2027
     19 N         143.5385  142.7171  163.2272 N.ar    1  UNL1       -0.2084
     20 H         139.9473  146.1769  162.5368 H       1  UNL1        0.2938
     21 C         141.3199  138.5934  159.2162 C.ar    1  UNL1        0.0622
     22 C         140.0370  138.4715  158.4487 C.ar    1  UNL1        0.0150
     23 C         139.9867  137.6443  157.1984 C.ar    1  UNL1       -0.0030
     24 C         141.2192  136.9388  156.7157 C.ar    1  UNL1       -0.0224
     25 C         142.5022  137.0607  157.4833 C.ar    1  UNL1       -0.0030
     26 C         142.5525  137.8880  158.7335 C.ar    1  UNL1        0.0150
     27 C         141.1689  136.1116  155.4655 C.3     1  UNL1        0.0223
     28 C         140.5089  136.6547  154.2329 C.3     1  UNL1        0.0044
     29 C         140.4585  135.8274  152.9827 C.3     1  UNL1        0.0003
     30 C         141.0682  134.4570  152.9650 C.3     1  UNL1        0.0000
     31 C         141.7282  133.9138  154.1977 C.3     1  UNL1        0.0003
     32 C         141.7785  134.7412  155.4480 C.3     1  UNL1        0.0044
     33 C         140.0954  140.1789  167.1534 C.3     1  UNL1        0.1183
     34 C         142.8047  139.2365  168.0316 C.3     1  UNL1        0.0323
     35 C         142.2602  140.5365  168.5447 C.ar    1  UNL1       -0.0069
     36 C         143.0703  141.3654  169.4968 C.ar    1  UNL1       -0.0015
     37 C         142.5258  142.6655  170.0099 C.ar    1  UNL1        0.0203
     38 C         141.1711  143.1367  169.5708 C.ar    1  UNL1        0.0985
     39 N         140.3609  142.3078  168.6186 N.ar    1  UNL1       -0.2471
     40 C         140.9055  141.0078  168.1055 C.ar    1  UNL1        0.0712
@<TRIPOS>BOND
     1    34    35    1
     2    35    36   ar
     3    36    37   ar
     4    37    38   ar
     5    38    39   ar
     6    39    40   ar
     7    40    33    1
     8    33     1    1
     9     1     2    1
    10     2     3    1
    11     3     4    1
    12     4     5    1
    13     5     6    1
    14     4     7    1
    15     7     8    2
    16     7     9   am
    17     9    21    1
    18    21    22   ar
    19    22    23   ar
    20    23    24   ar
    21    24    27    1
    22    27    28    1
    23    28    29    1
    24    29    30    1
    25    30    31    1
    26    31    32    1
    27    24    25   ar
    28    25    26   ar
    29     9    10   am
    30    10    11    2
    31    10    12   am
    32    12    13    1
    33    13    14   ar
    34    14    15   ar
    35    15    16    1
    36    15    17   ar
    37    17    18   ar
    38    18    19   ar
    39    40    35   ar
    40     6     1    1
    41    26    21   ar
    42    19    13   ar
    43    12     4    1
    44    32    27    1
    45    16    20    1
@<TRIPOS>MOLECULE
*****
 40 45 0 0 0
SMALL
GASTEIGER

@<TRIPOS>ATOM
      1 N         141.7118  139.2882  163.5845 N.3     1  UNL1       -0.2676
      2 C         141.2021  140.6855  163.3898 C.3     1  UNL1        0.0746
      3 C         141.7009  141.5126  162.2422 C.3     1  UNL1        0.0449
      4 C         142.7094  140.9425  161.2893 C.3     1  UNL1        0.1391
      5 C         143.2190  139.5453  161.4840 C.3     1  UNL1        0.0449
      6 C         142.7203  138.7181  162.6316 C.3     1  UNL1        0.0746
      7 C         143.7117  140.5098  160.2606 C.2     1  UNL1        0.2529
      8 O         144.3911  139.1739  160.1989 O.2     1  UNL1       -0.2724
      9 N         143.9152  141.6475  159.3044 N.am    1  UNL1       -0.1907
     10 C         143.0387  142.7834  159.7421 C.2     1  UNL1        0.3219
     11 O         142.9270  144.1201  159.0710 O.2     1  UNL1       -0.2512
     12 N         142.2935  142.3477  160.9688 N.am    1  UNL1       -0.2222
     13 C         141.3058  143.1723  161.7398 C.ar    1  UNL1        0.1453
     14 C         139.8386  143.0461  161.4544 C.ar    1  UNL1        0.0922
     15 C         138.8509  143.8707  162.2254 C.ar    1  UNL1        0.2259
     16 O         137.3838  143.7445  161.9401 O.3     1  UNL1       -0.4919
     17 N         139.3304  144.8216  163.2819 N.ar    1  UNL1       -0.1894
     18 C         140.7975  144.9478  163.5673 C.ar    1  UNL1        0.2027
     19 N         141.7852  144.1231  162.7963 N.ar    1  UNL1       -0.2084
     20 H         137.0842  143.1506  161.2802 H       1  UNL1        0.2938
     21 C         144.8339  141.6491  158.1186 C.ar    1  UNL1        0.0622
     22 C         145.9659  142.6306  158.0483 C.ar    1  UNL1        0.0150
     23 C         146.8846  142.6321  156.8626 C.ar    1  UNL1       -0.0030
     24 C         146.6713  141.6522  155.7472 C.ar    1  UNL1       -0.0224
     25 C         145.5392  140.6706  155.8176 C.ar    1  UNL1       -0.0030
     26 C         144.6205  140.6690  157.0033 C.ar    1  UNL1        0.0150
     27 C         147.5900  141.6537  154.5615 C.3     1  UNL1        0.0223
     28 C         147.0293  141.5066  153.1780 C.3     1  UNL1        0.0044
     29 C         147.9480  141.5082  151.9923 C.3     1  UNL1        0.0003
     30 C         149.4275  141.6569  152.1900 C.3     1  UNL1        0.0000
     31 C         149.9883  141.8040  153.5735 C.3     1  UNL1        0.0003
     32 C         149.0695  141.8024  154.7592 C.3     1  UNL1        0.0044
     33 C         141.2130  138.4610  164.7321 C.3     1  UNL1        0.1183
     34 C         138.5068  139.2525  165.7569 C.3     1  UNL1        0.0323
     35 C         139.7235  139.4692  166.6070 C.ar    1  UNL1       -0.0069
     36 C         139.5872  140.0816  167.9694 C.ar    1  UNL1       -0.0015
     37 C         140.8039  140.2983  168.8195 C.ar    1  UNL1        0.0203
     38 C         142.1570  139.9025  168.3072 C.ar    1  UNL1        0.0985
     39 N         142.2934  139.2901  166.9447 N.ar    1  UNL1       -0.2471
     40 C         141.0767  139.0734  166.0946 C.ar    1  UNL1        0.0712
@<TRIPOS>BOND
     1    34    35    1
     2    35    36   ar
     3    36    37   ar
     4    37    38   ar
     5    38    39   ar
     6    39    40   ar
     7    40    33    1
     8    33     1    1
     9     1     2    1
    10     2     3    1
    11     3     4    1
    12     4     5    1
    13     5     6    1
    14     4     7    1
    15     7     8    2
    16     7     9   am
    17     9    21    1
    18    21    22   ar
    19    22    23   ar
    20    23    24   ar
    21    24    27    1
    22    27    28    1
    23    28    29    1
    24    29    30    1
    25    30    31    1
    26    31    32    1
    27    24    25   ar
    28    25    26   ar
    29     9    10   am
    30    10    11    2
    31    10    12   am
    32    12    13    1
    33    13    14   ar
    34    14    15   ar
    35    15    16    1
    36    15    17   ar
    37    17    18   ar
    38    18    19   ar
    39    40    35   ar
    40     6     1    1
    41    26    21   ar
    42    19    13   ar
    43    12     4    1
    44    32    27    1
    45    16    20    1
@<TRIPOS>MOLECULE
*****
 40 45 0 0 0
SMALL
GASTEIGER

@<TRIPOS>ATOM
      1 N         141.2999  138.8564  162.9286 N.3     1  UNL1       -0.2676
      2 C         140.6602  140.1908  162.6837 C.3     1  UNL1        0.0746
      3 C         141.2320  141.1189  161.6534 C.3     1  UNL1        0.0449
      4 C         142.4437  140.7126  160.8680 C.3     1  UNL1        0.1391
      5 C         143.0835  139.3782  161.1129 C.3     1  UNL1        0.0449
      6 C         142.5116  138.4501  162.1432 C.3     1  UNL1        0.0746
      7 C         143.6446  140.4451  160.0100 C.2     1  UNL1        0.2529
      8 O         144.4845  139.2025  160.0316 O.2     1  UNL1       -0.2724
      9 N         143.8582  141.6384  159.1265 N.am    1  UNL1       -0.1907
     10 C         142.7893  142.6435  159.4386 C.2     1  UNL1        0.3219
     11 O         142.6236  143.9850  158.7885 O.2     1  UNL1       -0.2512
     12 N         141.9151  142.0713  160.5149 N.am    1  UNL1       -0.2222
     13 C         140.7218  142.7403  161.1300 C.ar    1  UNL1        0.1453
     14 C         140.9092  143.7576  162.2163 C.ar    1  UNL1        0.0922
     15 C         139.7158  144.4265  162.8314 C.ar    1  UNL1        0.2259
     16 O         139.9033  145.4438  163.9176 O.3     1  UNL1       -0.4919
     17 N         138.3349  144.0781  162.3603 N.ar    1  UNL1       -0.1894
     18 C         138.1475  143.0608  161.2741 C.ar    1  UNL1        0.2027
     19 N         139.3409  142.3919  160.6590 N.ar    1  UNL1       -0.2084
     20 H         140.7659  145.6614  164.2119 H       1  UNL1        0.2938
     21 C         144.9492  141.7986  158.1096 C.ar    1  UNL1        0.0622
     22 C         144.9242  140.9865  156.8487 C.ar    1  UNL1        0.0150
     23 C         146.0152  141.1466  155.8318 C.ar    1  UNL1       -0.0030
     24 C         147.1310  142.1189  156.0757 C.ar    1  UNL1       -0.0224
     25 C         147.1559  142.9310  157.3366 C.ar    1  UNL1       -0.0030
     26 C         146.0650  142.7709  158.3535 C.ar    1  UNL1        0.0150
     27 C         148.2220  142.2790  155.0588 C.3     1  UNL1        0.0223
     28 C         147.9565  143.0260  153.7853 C.3     1  UNL1        0.0044
     29 C         149.0474  143.1861  152.7684 C.3     1  UNL1        0.0003
     30 C         150.4039  142.5993  153.0249 C.3     1  UNL1        0.0000
     31 C         150.6694  141.8523  154.2983 C.3     1  UNL1        0.0003
     32 C         149.5784  141.6922  155.3153 C.3     1  UNL1        0.0044
     33 C         140.7280  137.9282  163.9589 C.3     1  UNL1        0.1183
     34 C         142.3224  139.4792  165.9721 C.3     1  UNL1        0.0323
     35 C         140.8540  139.2601  166.1861 C.ar    1  UNL1       -0.0069
     36 C         140.1828  139.8165  167.4067 C.ar    1  UNL1       -0.0015
     37 C         138.7144  139.5974  167.6207 C.ar    1  UNL1        0.0203
     38 C         137.9172  138.8219  166.6142 C.ar    1  UNL1        0.0985
     39 N         138.5884  138.2655  165.3936 N.ar    1  UNL1       -0.2471
     40 C         140.0568  138.4846  165.1795 C.ar    1  UNL1        0.0712
@<TRIPOS>BOND
     1    34    35    1
     2    35    36   ar
     3    36    37   ar
     4    37    38   ar
     5    38    39   ar
     6    39    40   ar
     7    40    33    1
     8    33     1    1
     9     1     2    1
    10     2     3    1
    11     3     4    1
    12     4     5    1
    13     5     6    1
    14     4     7    1
    15     7     8    2
    16     7     9   am
    17     9    21    1
    18    21    22   ar
    19    22    23   ar
    20    23    24   ar
    21    24    27    1
    22    27    28    1
    23    28    29    1
    24    29    30    1
    25    30    31    1
    26    31    32    1
    27    24    25   ar
    28    25    26   ar
    29     9    10   am
    30    10    11    2
    31    10    12   am
    32    12    13    1
    33    13    14   ar
    34    14    15   ar
    35    15    16    1
    36    15    17   ar
    37    17    18   ar
    38    18    19   ar
    39    40    35   ar
    40     6     1    1
    41    26    21   ar
    42    19    13   ar
    43    12     4    1
    44    32    27    1
    45    16    20    1
@<TRIPOS>MOLECULE
*****
 40 45 0 0 0
SMALL
GASTEIGER

@<TRIPOS>ATOM
      1 N         139.9033  145.3911  156.5295 N.3     1  UNL1       -0.2676
      2 C         139.2900  144.0239  156.4618 C.3     1  UNL1        0.0746
      3 C         139.2426  143.1617  157.6882 C.3     1  UNL1        0.0449
      4 C         139.8084  143.6667  158.9824 C.3     1  UNL1        0.1391
      5 C         140.4217  145.0339  159.0501 C.3     1  UNL1        0.0449
      6 C         140.4691  145.8961  157.8236 C.3     1  UNL1        0.0746
      7 C         140.3313  144.0343  160.3394 C.2     1  UNL1        0.2529
      8 O         140.9933  145.3288  160.7082 O.2     1  UNL1       -0.2724
      9 N         140.0758  142.8801  161.2629 N.am    1  UNL1       -0.1907
     10 C         139.3950  141.7992  160.4766 C.2     1  UNL1        0.3219
     11 O         138.9566  140.4663  161.0066 O.2     1  UNL1       -0.2512
     12 N         139.2298  142.2853  159.0672 N.am    1  UNL1       -0.2222
     13 C         138.5971  141.5238  157.9404 C.ar    1  UNL1        0.1453
     14 C         137.1431  141.7180  157.6272 C.ar    1  UNL1        0.0922
     15 C         136.5104  140.9564  156.5003 C.ar    1  UNL1        0.2259
     16 O         135.0564  141.1506  156.1871 O.3     1  UNL1       -0.4919
     17 N         137.3317  140.0007  155.6867 N.ar    1  UNL1       -0.1894
     18 C         138.7857  139.8065  155.9999 C.ar    1  UNL1        0.2027
     19 N         139.4184  140.5680  157.1267 N.ar    1  UNL1       -0.2084
     20 H         134.5433  141.7477  156.6953 H       1  UNL1        0.2938
     21 C         140.4375  142.8179  162.7173 C.ar    1  UNL1        0.0622
     22 C         139.6162  143.5634  163.7270 C.ar    1  UNL1        0.0150
     23 C         139.9780  143.5011  165.1814 C.ar    1  UNL1       -0.0030
     24 C         141.1610  142.6934  165.6261 C.ar    1  UNL1       -0.0224
     25 C         141.9824  141.9478  164.6163 C.ar    1  UNL1       -0.0030
     26 C         141.6207  142.0101  163.1619 C.ar    1  UNL1        0.0150
     27 C         141.5228  142.6311  167.0804 C.3     1  UNL1        0.0223
     28 C         140.4898  142.9378  168.1240 C.3     1  UNL1        0.0044
     29 C         140.8516  142.8755  169.5784 C.3     1  UNL1        0.0003
     30 C         142.2463  142.5066  169.9893 C.3     1  UNL1        0.0000
     31 C         143.2792  142.2000  168.9457 C.3     1  UNL1        0.0003
     32 C         142.9174  142.2622  167.4912 C.3     1  UNL1        0.0044
     33 C         139.9507  146.2535  155.3030 C.3     1  UNL1        0.1183
     34 C         140.6825  148.1561  153.1020 C.3     1  UNL1        0.0323
     35 C         139.8858  148.6397  154.2773 C.ar    1  UNL1       -0.0069
     36 C         139.4549  150.0745  154.3522 C.ar    1  UNL1       -0.0015
     37 C         138.6582  150.5580  155.5275 C.ar    1  UNL1        0.0203
     38 C         138.2923  149.6067  156.6280 C.ar    1  UNL1        0.0985
     39 N         138.7232  148.1718  156.5532 N.ar    1  UNL1       -0.2471
     40 C         139.5199  147.6883  155.3778 C.ar    1  UNL1        0.0712
@<TRIPOS>BOND
     1    34    35    1
     2    35    36   ar
     3    36    37   ar
     4    37    38   ar
     5    38    39   ar
     6    39    40   ar
     7    40    33    1
     8    33     1    1
     9     1     2    1
    10     2     3    1
    11     3     4    1
    12     4     5    1
    13     5     6    1
    14     4     7    1
    15     7     8    2
    16     7     9   am
    17     9    21    1
    18    21    22   ar
    19    22    23   ar
    20    23    24   ar
    21    24    27    1
    22    27    28    1
    23    28    29    1
    24    29    30    1
    25    30    31    1
    26    31    32    1
    27    24    25   ar
    28    25    26   ar
    29     9    10   am
    30    10    11    2
    31    10    12   am
    32    12    13    1
    33    13    14   ar
    34    14    15   ar
    35    15    16    1
    36    15    17   ar
    37    17    18   ar
    38    18    19   ar
    39    40    35   ar
    40     6     1    1
    41    26    21   ar
    42    19    13   ar
    43    12     4    1
    44    32    27    1
    45    16    20    1
@<TRIPOS>MOLECULE
*****
 40 45 0 0 0
SMALL
GASTEIGER

@<TRIPOS>ATOM
      1 N         142.4895  140.3249  165.9681 N.3     1  UNL1       -0.2676
      2 C         141.3290  141.1085  165.4303 C.3     1  UNL1        0.0746
      3 C         141.3294  141.5637  164.0010 C.3     1  UNL1        0.0449
      4 C         142.4903  141.2354  163.1096 C.3     1  UNL1        0.1391
      5 C         143.6508  140.4518  163.6475 C.3     1  UNL1        0.0449
      6 C         143.6504  139.9966  165.0767 C.3     1  UNL1        0.0746
      7 C         143.5748  140.9837  162.1044 C.2     1  UNL1        0.2529
      8 O         144.8493  140.2324  162.3519 O.2     1  UNL1       -0.2724
      9 N         143.1610  141.6150  160.8081 N.am    1  UNL1       -0.1907
     10 C         141.8207  142.2570  161.0123 C.2     1  UNL1        0.3219
     11 O         141.0333  143.0026  159.9760 O.2     1  UNL1       -0.2512
     12 N         141.4062  142.0224  162.4346 N.am    1  UNL1       -0.2222
     13 C         140.1315  142.4922  163.0705 C.ar    1  UNL1        0.1453
     14 C         140.1139  143.7648  163.8642 C.ar    1  UNL1        0.0922
     15 C         138.8391  144.2346  164.5000 C.ar    1  UNL1        0.2259
     16 O         138.8215  145.5072  165.2938 O.3     1  UNL1       -0.4919
     17 N         137.5819  143.4317  164.3421 N.ar    1  UNL1       -0.1894
     18 C         137.5995  142.1591  163.5483 C.ar    1  UNL1        0.2027
     19 N         138.8743  141.6893  162.9125 N.ar    1  UNL1       -0.2084
     20 H         139.6068  146.0087  165.3925 H       1  UNL1        0.2938
     21 C         143.9491  141.6060  159.5319 C.ar    1  UNL1        0.0622
     22 C         145.0579  142.5953  159.3281 C.ar    1  UNL1        0.0150
     23 C         145.8460  142.5863  158.0519 C.ar    1  UNL1       -0.0030
     24 C         145.5253  141.5880  156.9794 C.ar    1  UNL1       -0.0224
     25 C         144.4164  140.5986  157.1831 C.ar    1  UNL1       -0.0030
     26 C         143.6283  140.6077  158.4594 C.ar    1  UNL1        0.0150
     27 C         146.3133  141.5790  155.7031 C.3     1  UNL1        0.0223
     28 C         145.7074  141.0166  154.4515 C.3     1  UNL1        0.0044
     29 C         146.4955  141.0076  153.1752 C.3     1  UNL1        0.0003
     30 C         147.8896  141.5610  153.1506 C.3     1  UNL1        0.0000
     31 C         148.4954  142.1234  154.4023 C.3     1  UNL1        0.0003
     32 C         147.7073  142.1324  155.6786 C.3     1  UNL1        0.0044
     33 C         142.4891  139.8696  167.3974 C.3     1  UNL1        0.1183
     34 C         143.3503  142.4633  168.6348 C.3     1  UNL1        0.0323
     35 C         142.0378  141.8478  169.0201 C.ar    1  UNL1       -0.0069
     36 C         141.1558  142.5291  170.0240 C.ar    1  UNL1       -0.0015
     37 C         139.8433  141.9136  170.4092 C.ar    1  UNL1        0.0203
     38 C         139.4127  140.6168  169.7905 C.ar    1  UNL1        0.0985
     39 N         140.2946  139.9354  168.7865 N.ar    1  UNL1       -0.2471
     40 C         141.6072  140.5509  168.4013 C.ar    1  UNL1        0.0712
@<TRIPOS>BOND
     1    34    35    1
     2    35    36   ar
     3    36    37   ar
     4    37    38   ar
     5    38    39   ar
     6    39    40   ar
     7    40    33    1
     8    33     1    1
     9     1     2    1
    10     2     3    1
    11     3     4    1
    12     4     5    1
    13     5     6    1
    14     4     7    1
    15     7     8    2
    16     7     9   am
    17     9    21    1
    18    21    22   ar
    19    22    23   ar
    20    23    24   ar
    21    24    27    1
    22    27    28    1
    23    28    29    1
    24    29    30    1
    25    30    31    1
    26    31    32    1
    27    24    25   ar
    28    25    26   ar
    29     9    10   am
    30    10    11    2
    31    10    12   am
    32    12    13    1
    33    13    14   ar
    34    14    15   ar
    35    15    16    1
    36    15    17   ar
    37    17    18   ar
    38    18    19   ar
    39    40    35   ar
    40     6     1    1
    41    26    21   ar
    42    19    13   ar
    43    12     4    1
    44    32    27    1
    45    16    20    1
@<TRIPOS>MOLECULE
*****
 40 45 0 0 0
SMALL
GASTEIGER

@<TRIPOS>ATOM
      1 N         137.8595  141.2164  157.0731 N.3     1  UNL1       -0.2676
      2 C         138.7779  142.3679  156.7891 C.3     1  UNL1        0.0746
      3 C         139.5731  142.9849  157.9013 C.3     1  UNL1        0.0449
      4 C         139.4498  142.4504  159.2974 C.3     1  UNL1        0.1391
      5 C         138.5315  141.2989  159.5814 C.3     1  UNL1        0.0449
      6 C         137.7363  140.6819  158.4692 C.3     1  UNL1        0.0746
      7 C         139.4307  142.0255  160.7359 C.2     1  UNL1        0.2529
      8 O         138.6130  140.9091  161.3147 O.2     1  UNL1       -0.2724
      9 N         140.3729  142.9132  161.4940 N.am    1  UNL1       -0.1907
     10 C         140.9742  143.8866  160.5240 C.2     1  UNL1        0.3219
     11 O         141.9710  144.9579  160.8536 O.2     1  UNL1       -0.2512
     12 N         140.4038  143.6006  159.1665 N.am    1  UNL1       -0.2222
     13 C         140.7300  144.3356  157.9003 C.ar    1  UNL1        0.1453
     14 C         140.0318  145.6239  157.5798 C.ar    1  UNL1        0.0922
     15 C         140.3580  146.3589  156.3135 C.ar    1  UNL1        0.2259
     16 O         139.6598  147.6472  155.9930 O.3     1  UNL1       -0.4919
     17 N         141.3825  145.8056  155.3678 N.ar    1  UNL1       -0.1894
     18 C         142.0807  144.5173  155.6883 C.ar    1  UNL1        0.2027
     19 N         141.7545  143.7824  156.9545 N.ar    1  UNL1       -0.2084
     20 H         139.0199  147.9929  156.5838 H       1  UNL1        0.2938
     21 C         140.6627  142.8402  162.9639 C.ar    1  UNL1        0.0622
     22 C         141.8941  142.1362  163.4515 C.ar    1  UNL1        0.0150
     23 C         142.1840  142.0633  164.9214 C.ar    1  UNL1       -0.0030
     24 C         141.2423  142.6943  165.9037 C.ar    1  UNL1       -0.0224
     25 C         140.0108  143.3983  165.4161 C.ar    1  UNL1       -0.0030
     26 C         139.7210  143.4713  163.9462 C.ar    1  UNL1        0.0150
     27 C         141.5321  142.6213  167.3736 C.3     1  UNL1        0.0223
     28 C         140.4653  142.9752  168.3669 C.3     1  UNL1        0.0044
     29 C         140.7551  142.9023  169.8368 C.3     1  UNL1        0.0003
     30 C         142.1119  142.4753  170.3135 C.3     1  UNL1        0.0000
     31 C         143.1787  142.1214  169.3202 C.3     1  UNL1        0.0003
     32 C         142.8888  142.1943  167.8502 C.3     1  UNL1        0.0044
     33 C         137.0643  140.5994  155.9608 C.3     1  UNL1        0.1183
     34 C         135.5427  142.0914  153.8493 C.3     1  UNL1        0.0323
     35 C         134.8045  141.3815  154.9452 C.ar    1  UNL1       -0.0069
     36 C         133.3055  141.4177  154.9854 C.ar    1  UNL1       -0.0015
     37 C         132.5673  140.7078  156.0814 C.ar    1  UNL1        0.0203
     38 C         133.3280  139.9618  157.1371 C.ar    1  UNL1        0.0985
     39 N         134.8271  139.9256  157.0970 N.ar    1  UNL1       -0.2471
     40 C         135.5653  140.6355  156.0010 C.ar    1  UNL1        0.0712
@<TRIPOS>BOND
     1    34    35    1
     2    35    36   ar
     3    36    37   ar
     4    37    38   ar
     5    38    39   ar
     6    39    40   ar
     7    40    33    1
     8    33     1    1
     9     1     2    1
    10     2     3    1
    11     3     4    1
    12     4     5    1
    13     5     6    1
    14     4     7    1
    15     7     8    2
    16     7     9   am
    17     9    21    1
    18    21    22   ar
    19    22    23   ar
    20    23    24   ar
    21    24    27    1
    22    27    28    1
    23    28    29    1
    24    29    30    1
    25    30    31    1
    26    31    32    1
    27    24    25   ar
    28    25    26   ar
    29     9    10   am
    30    10    11    2
    31    10    12   am
    32    12    13    1
    33    13    14   ar
    34    14    15   ar
    35    15    16    1
    36    15    17   ar
    37    17    18   ar
    38    18    19   ar
    39    40    35   ar
    40     6     1    1
    41    26    21   ar
    42    19    13   ar
    43    12     4    1
    44    32    27    1
    45    16    20    1
@<TRIPOS>MOLECULE
*****
 40 45 0 0 0
SMALL
GASTEIGER

@<TRIPOS>ATOM
      1 N         141.5243  145.0106  157.9350 N.3     1  UNL1       -0.2676
      2 C         142.6475  144.0467  157.6916 C.3     1  UNL1        0.0746
      3 C         143.2038  143.2410  158.8280 C.3     1  UNL1        0.0449
      4 C         142.6368  143.3992  160.2077 C.3     1  UNL1        0.1391
      5 C         141.5136  144.3630  160.4510 C.3     1  UNL1        0.0449
      6 C         140.9573  145.1687  159.3147 C.3     1  UNL1        0.0746
      7 C         142.1744  143.4497  161.6337 C.2     1  UNL1        0.2529
      8 O         141.0744  144.3148  162.1738 O.2     1  UNL1       -0.2724
      9 N         143.0050  142.4831  162.4250 N.am    1  UNL1       -0.1907
     10 C         143.9809  141.8353  161.4879 C.2     1  UNL1        0.3219
     11 O         145.0044  140.8027  161.8564 O.2     1  UNL1       -0.2512
     12 N         143.7533  142.4014  160.1176 N.am    1  UNL1       -0.2222
     13 C         144.5094  142.0343  158.8752 C.ar    1  UNL1        0.1453
     14 C         144.0999  140.8334  158.0752 C.ar    1  UNL1        0.0922
     15 C         144.8560  140.4664  156.8329 C.ar    1  UNL1        0.2259
     16 O         144.4465  139.2654  156.0328 O.3     1  UNL1       -0.4919
     17 N         146.0218  141.3002  156.3904 N.ar    1  UNL1       -0.1894
     18 C         146.4314  142.5011  157.1904 C.ar    1  UNL1        0.2027
     19 N         145.6752  142.8682  158.4328 N.ar    1  UNL1       -0.2084
     20 H         143.7183  138.7445  156.3092 H       1  UNL1        0.2938
     21 C         142.8815  142.2121  163.8951 C.ar    1  UNL1        0.0622
     22 C         141.9147  141.1768  164.3882 C.ar    1  UNL1        0.0150
     23 C         141.7911  140.9057  165.8583 C.ar    1  UNL1       -0.0030
     24 C         142.6345  141.6700  166.8353 C.ar    1  UNL1       -0.0224
     25 C         143.6014  142.7053  166.3422 C.ar    1  UNL1       -0.0030
     26 C         143.7249  142.9764  164.8721 C.ar    1  UNL1        0.0150
     27 C         142.5110  141.3989  168.3054 C.3     1  UNL1        0.0223
     28 C         142.2739  142.5317  169.2596 C.3     1  UNL1        0.0044
     29 C         142.1504  142.2607  170.7297 C.3     1  UNL1        0.0003
     30 C         142.2639  140.8567  171.2457 C.3     1  UNL1        0.0000
     31 C         142.5010  139.7239  170.2915 C.3     1  UNL1        0.0003
     32 C         142.6245  139.9950  168.8213 C.3     1  UNL1        0.0044
     33 C         140.9679  145.8163  156.7986 C.3     1  UNL1        0.1183
     34 C         139.1850  147.8021  155.4281 C.3     1  UNL1        0.0323
     35 C         138.8464  146.3412  155.3936 C.ar    1  UNL1       -0.0069
     36 C         137.6164  145.8732  154.6740 C.ar    1  UNL1       -0.0015
     37 C         137.2778  144.4123  154.6395 C.ar    1  UNL1        0.0203
     38 C         138.1692  143.4195  155.3247 C.ar    1  UNL1        0.0985
     39 N         139.3993  143.8874  156.0444 N.ar    1  UNL1       -0.2471
     40 C         139.7379  145.3483  156.0789 C.ar    1  UNL1        0.0712
@<TRIPOS>BOND
     1    34    35    1
     2    35    36   ar
     3    36    37   ar
     4    37    38   ar
     5    38    39   ar
     6    39    40   ar
     7    40    33    1
     8    33     1    1
     9     1     2    1
    10     2     3    1
    11     3     4    1
    12     4     5    1
    13     5     6    1
    14     4     7    1
    15     7     8    2
    16     7     9   am
    17     9    21    1
    18    21    22   ar
    19    22    23   ar
    20    23    24   ar
    21    24    27    1
    22    27    28    1
    23    28    29    1
    24    29    30    1
    25    30    31    1
    26    31    32    1
    27    24    25   ar
    28    25    26   ar
    29     9    10   am
    30    10    11    2
    31    10    12   am
    32    12    13    1
    33    13    14   ar
    34    14    15   ar
    35    15    16    1
    36    15    17   ar
    37    17    18   ar
    38    18    19   ar
    39    40    35   ar
    40     6     1    1
    41    26    21   ar
    42    19    13   ar
    43    12     4    1
    44    32    27    1
    45    16    20    1
