@<TRIPOS>MOLECULE
*****
 40 44 0 0 0
SMALL
GASTEIGER

@<TRIPOS>ATOM
      1 C         143.1190  144.0453  162.4239 C.2     1  UNL1        0.2251
      2 O         144.4751  144.6848  162.4693 O.2     1  UNL1       -0.2749
      3 N         142.6216  143.2574  163.5994 N.am    1  UNL1       -0.2795
      4 C         141.2655  142.6180  163.5540 C.3     1  UNL1        0.0942
      5 C         140.7681  141.8300  164.7296 C.3     1  UNL1        0.0343
      6 C         141.6269  141.6816  165.9504 C.3     1  UNL1        0.0911
      7 C         142.9830  142.3210  165.9958 C.3     1  UNL1        0.0343
      8 C         143.4804  143.1089  164.8203 C.3     1  UNL1        0.0942
      9 C         140.5428  144.4909  158.7614 C.3     1  UNL1        0.0542
     10 C         140.2746  145.3323  159.9738 C.3     1  UNL1        0.0162
     11 C         141.1333  145.1838  161.1946 C.3     1  UNL1        0.0104
     12 C         142.2603  144.1938  161.2030 C.3     1  UNL1        0.0768
     13 C         142.5284  143.3524  159.9906 C.3     1  UNL1        0.0095
     14 C         143.1726  142.3370  159.0939 C.3     1  UNL1        0.0005
     15 C         143.6109  142.8512  160.9000 C.3     1  UNL1        0.0005
     16 C         141.6697  143.5010  158.7697 C.3     1  UNL1        0.0162
     17 N         139.6840  144.6394  157.5404 N.3     1  UNL1       -0.2962
     18 H         139.4259  143.6977  157.2457 H       1  UNL1        0.1235
     19 C         141.2033  144.6473  155.4328 C.3     1  UNL1        0.0220
     20 C         140.2195  145.3412  156.3277 C.3     1  UNL1        0.0768
     21 C         139.7712  146.7369  156.0098 C.ar    1  UNL1       -0.0079
     22 C         138.9799  147.5181  157.0165 C.ar    1  UNL1       -0.0007
     23 C         138.5316  148.9138  156.6986 C.ar    1  UNL1        0.0294
     24 C         138.8747  149.5283  155.3740 C.ar    1  UNL1        0.1401
     25 F         138.4264  150.9240  155.0561 F       1  UNL1       -0.2042
     26 C         139.6661  148.7471  154.3672 C.ar    1  UNL1        0.0294
     27 C         140.1143  147.3514  154.6851 C.ar    1  UNL1       -0.0007
     28 C         140.4239  140.8958  166.3810 C.2     1  UNL1        0.2286
     29 O         139.5613  141.3982  167.5006 O.2     1  UNL1       -0.2746
     30 N         140.0835  139.6076  165.6919 N.am    1  UNL1       -0.2793
     31 C         138.9186  138.7182  166.0109 C.3     1  UNL1        0.0935
     32 C         138.9633  137.5437  165.0791 C.3     1  UNL1        0.0233
     33 C         140.1559  137.7073  164.1840 C.3     1  UNL1        0.0233
     34 C         140.8481  138.9829  164.5628 C.3     1  UNL1        0.0935
     35 C         142.0678  141.2602  167.3208 C.ar    1  UNL1       -0.0145
     36 C         142.3567  142.2955  168.3671 C.ar    1  UNL1       -0.0038
     37 C         142.7976  141.8741  169.7375 C.ar    1  UNL1       -0.0003
     38 C         142.9498  140.4175  170.0616 C.ar    1  UNL1       -0.0000
     39 C         142.6610  139.3822  169.0153 C.ar    1  UNL1       -0.0003
     40 C         142.2200  139.8036  167.6449 C.ar    1  UNL1       -0.0038
@<TRIPOS>BOND
     1    20    19    1
     2    20    17    1
     3     9    17    1
     4     9    10    1
     5    10    11    1
     6    11    12    1
     7    12     1    1
     8     1     2    2
     9     1     3   am
    10     3     4    1
    11     4     5    1
    12     5     6    1
    13     6    28    1
    14    28    29    2
    15    28    30   am
    16    30    31    1
    17    31    32    1
    18    32    33    1
    19    33    34    1
    20     6    35    1
    21    35    36   ar
    22    36    37   ar
    23    37    38   ar
    24    38    39   ar
    25    39    40   ar
    26     6     7    1
    27     7     8    1
    28    12    13    1
    29    13    14    1
    30    13    15    1
    31    13    16    1
    32    20    21    1
    33    21    22   ar
    34    22    23   ar
    35    23    24   ar
    36    24    25    1
    37    24    26   ar
    38    26    27   ar
    39    16     9    1
    40    27    21   ar
    41     8     3    1
    42    34    30    1
    43    40    35   ar
    44    17    18    1
@<TRIPOS>MOLECULE
*****
 40 44 0 0 0
SMALL
GASTEIGER

@<TRIPOS>ATOM
      1 C         138.9300  144.2338  162.3530 C.2     1  UNL1        0.2251
      2 O         137.5891  144.9012  162.4338 O.2     1  UNL1       -0.2749
      3 N         139.5308  143.6071  163.5763 N.am    1  UNL1       -0.2795
      4 C         140.8717  142.9397  163.4955 C.3     1  UNL1        0.0942
      5 C         141.4724  142.3130  164.7188 C.3     1  UNL1        0.0343
      6 C         140.7323  142.3537  166.0228 C.3     1  UNL1        0.0911
      7 C         139.3914  143.0211  166.1036 C.3     1  UNL1        0.0343
      8 C         138.7906  143.6478  164.8803 C.3     1  UNL1        0.0942
      9 C         141.1505  144.1117  158.4409 C.3     1  UNL1        0.0542
     10 C         141.4531  145.1871  159.4418 C.3     1  UNL1        0.0162
     11 C         140.7129  145.2278  160.7458 C.3     1  UNL1        0.0104
     12 C         139.6702  144.1930  161.0489 C.3     1  UNL1        0.0768
     13 C         139.3676  143.1176  160.0481 C.3     1  UNL1        0.0095
     14 C         138.7312  141.9106  159.4249 C.3     1  UNL1        0.0005
     15 C         138.4064  142.7391  161.1357 C.3     1  UNL1        0.0005
     16 C         140.1077  143.0769  158.7441 C.3     1  UNL1        0.0162
     17 N         141.8906  144.0709  157.1368 N.3     1  UNL1       -0.2962
     18 H         142.5505  144.8486  157.1484 H       1  UNL1        0.1235
     19 C         140.8470  142.9191  155.0549 C.3     1  UNL1        0.0220
     20 C         141.1366  144.1620  155.8433 C.3     1  UNL1        0.0768
     21 C         140.6722  145.4958  155.3382 C.ar    1  UNL1       -0.0079
     22 C         141.1870  146.0239  154.0321 C.ar    1  UNL1       -0.0007
     23 C         140.7225  147.3577  153.5270 C.ar    1  UNL1        0.0294
     24 C         139.7433  148.1635  154.3280 C.ar    1  UNL1        0.1401
     25 F         139.2788  149.4974  153.8229 F       1  UNL1       -0.2042
     26 C         139.2284  147.6355  155.6342 C.ar    1  UNL1        0.0294
     27 C         139.6929  146.3016  156.1394 C.ar    1  UNL1       -0.0007
     28 C         141.9647  141.6109  166.4459 C.2     1  UNL1        0.2286
     29 O         142.9995  142.2940  167.2901 O.2     1  UNL1       -0.2746
     30 N         142.1626  140.1848  166.0249 N.am    1  UNL1       -0.2793
     31 C         143.3378  139.3187  166.3694 C.3     1  UNL1        0.0935
     32 C         143.1215  137.9732  165.7429 C.3     1  UNL1        0.0233
     33 C         141.8125  138.0076  165.0112 C.3     1  UNL1        0.0233
     34 C         141.2199  139.3745  165.1855 C.3     1  UNL1        0.0935
     35 C         140.4201  142.1365  167.4738 C.ar    1  UNL1       -0.0145
     36 C         139.9414  140.7954  167.9453 C.ar    1  UNL1       -0.0038
     37 C         139.6292  140.5781  169.3963 C.ar    1  UNL1       -0.0003
     38 C         139.7958  141.7019  170.3757 C.ar    1  UNL1       -0.0000
     39 C         140.2746  143.0430  169.9042 C.ar    1  UNL1       -0.0003
     40 C         140.5867  143.2602  168.4532 C.ar    1  UNL1       -0.0038
@<TRIPOS>BOND
     1    20    19    1
     2    20    17    1
     3     9    17    1
     4     9    10    1
     5    10    11    1
     6    11    12    1
     7    12     1    1
     8     1     2    2
     9     1     3   am
    10     3     4    1
    11     4     5    1
    12     5     6    1
    13     6    28    1
    14    28    29    2
    15    28    30   am
    16    30    31    1
    17    31    32    1
    18    32    33    1
    19    33    34    1
    20     6    35    1
    21    35    36   ar
    22    36    37   ar
    23    37    38   ar
    24    38    39   ar
    25    39    40   ar
    26     6     7    1
    27     7     8    1
    28    12    13    1
    29    13    14    1
    30    13    15    1
    31    13    16    1
    32    20    21    1
    33    21    22   ar
    34    22    23   ar
    35    23    24   ar
    36    24    25    1
    37    24    26   ar
    38    26    27   ar
    39    16     9    1
    40    27    21   ar
    41     8     3    1
    42    34    30    1
    43    40    35   ar
    44    17    18    1
@<TRIPOS>MOLECULE
*****
 40 44 0 0 0
SMALL
GASTEIGER

@<TRIPOS>ATOM
      1 C         144.7024  141.8368  163.2557 C.2     1  UNL1        0.2251
      2 O         146.1882  141.6922  163.1096 O.2     1  UNL1       -0.2749
      3 N         143.8722  142.2699  162.0838 N.am    1  UNL1       -0.2795
      4 C         142.3864  142.4145  162.2299 C.3     1  UNL1        0.0942
      5 C         141.5562  142.8476  161.0579 C.3     1  UNL1        0.0343
      6 C         142.2119  143.1360  159.7401 C.3     1  UNL1        0.0911
      7 C         143.6978  142.9914  159.5940 C.3     1  UNL1        0.0343
      8 C         144.5279  142.5583  160.7659 C.3     1  UNL1        0.0942
      9 C         142.7354  140.9716  167.2094 C.3     1  UNL1        0.0542
     10 C         143.1384  142.3744  166.8633 C.3     1  UNL1        0.0162
     11 C         143.7941  142.6628  165.5454 C.3     1  UNL1        0.0104
     12 C         144.0467  141.5484  164.5736 C.3     1  UNL1        0.0768
     13 C         143.6437  140.1456  164.9198 C.3     1  UNL1        0.0095
     14 C         143.4444  138.6643  164.7929 C.3     1  UNL1        0.0005
     15 C         144.2302  139.9196  163.5577 C.3     1  UNL1        0.0005
     16 C         142.9881  139.8573  166.2377 C.3     1  UNL1        0.0162
     17 N         142.0797  140.6832  168.5274 N.3     1  UNL1       -0.2962
     18 H         142.4580  139.7949  168.8563 H       1  UNL1        0.1235
     19 C         139.9173  140.4904  169.9545 C.3     1  UNL1        0.0220
     20 C         140.5861  140.5766  168.6146 C.3     1  UNL1        0.0768
     21 C         139.7612  140.5562  167.3619 C.ar    1  UNL1       -0.0079
     22 C         139.7446  141.7511  166.4554 C.ar    1  UNL1       -0.0007
     23 C         138.9197  141.7308  165.2027 C.ar    1  UNL1        0.0294
     24 C         138.1115  140.5155  164.8566 C.ar    1  UNL1        0.1401
     25 F         137.2866  140.4952  163.6040 F       1  UNL1       -0.2042
     26 C         138.1281  139.3206  165.7632 C.ar    1  UNL1        0.0294
     27 C         138.9529  139.3409  167.0159 C.ar    1  UNL1       -0.0007
     28 C         140.7813  143.4144  159.3857 C.2     1  UNL1        0.2286
     29 O         140.2354  144.8062  159.5082 O.2     1  UNL1       -0.2746
     30 N         139.8964  142.3010  158.9087 N.am    1  UNL1       -0.2793
     31 C         138.4531  142.4268  158.5201 C.3     1  UNL1        0.0935
     32 C         137.9642  141.0700  158.1078 C.3     1  UNL1        0.0233
     33 C         139.1054  140.1057  158.2416 C.3     1  UNL1        0.0233
     34 C         140.2995  140.8666  158.7366 C.3     1  UNL1        0.0935
     35 C         142.3708  143.5211  158.2991 C.ar    1  UNL1       -0.0145
     36 C         142.0889  144.9286  157.8634 C.ar    1  UNL1       -0.0038
     37 C         142.2478  145.3137  156.4225 C.ar    1  UNL1       -0.0003
     38 C         142.6884  144.2914  155.4171 C.ar    1  UNL1       -0.0000
     39 C         142.9703  142.8840  155.8528 C.ar    1  UNL1       -0.0003
     40 C         142.8114  142.4989  157.2937 C.ar    1  UNL1       -0.0038
@<TRIPOS>BOND
     1    20    19    1
     2    20    17    1
     3     9    17    1
     4     9    10    1
     5    10    11    1
     6    11    12    1
     7    12     1    1
     8     1     2    2
     9     1     3   am
    10     3     4    1
    11     4     5    1
    12     5     6    1
    13     6    28    1
    14    28    29    2
    15    28    30   am
    16    30    31    1
    17    31    32    1
    18    32    33    1
    19    33    34    1
    20     6    35    1
    21    35    36   ar
    22    36    37   ar
    23    37    38   ar
    24    38    39   ar
    25    39    40   ar
    26     6     7    1
    27     7     8    1
    28    12    13    1
    29    13    14    1
    30    13    15    1
    31    13    16    1
    32    20    21    1
    33    21    22   ar
    34    22    23   ar
    35    23    24   ar
    36    24    25    1
    37    24    26   ar
    38    26    27   ar
    39    16     9    1
    40    27    21   ar
    41     8     3    1
    42    34    30    1
    43    40    35   ar
    44    17    18    1
@<TRIPOS>MOLECULE
*****
 40 44 0 0 0
SMALL
GASTEIGER

@<TRIPOS>ATOM
      1 C         138.9416  144.2268  162.4124 C.2     1  UNL1        0.2251
      2 O         137.6063  144.9056  162.4904 O.2     1  UNL1       -0.2749
      3 N         139.5423  143.6099  163.6406 N.am    1  UNL1       -0.2795
      4 C         140.8776  142.9310  163.5625 C.3     1  UNL1        0.0942
      5 C         141.4783  142.3141  164.7908 C.3     1  UNL1        0.0343
      6 C         140.7437  142.3760  166.0971 C.3     1  UNL1        0.0911
      7 C         139.4084  143.0549  166.1751 C.3     1  UNL1        0.0343
      8 C         138.8077  143.6718  164.9469 C.3     1  UNL1        0.0942
      9 C         141.1455  144.0412  158.4934 C.3     1  UNL1        0.0542
     10 C         141.4812  145.1082  159.4928 C.3     1  UNL1        0.0162
     11 C         140.7465  145.1700  160.7991 C.3     1  UNL1        0.0104
     12 C         139.6762  144.1649  161.1060 C.3     1  UNL1        0.0768
     13 C         139.3406  143.0979  160.1066 C.3     1  UNL1        0.0095
     14 C         138.6687  141.9090  159.4860 C.3     1  UNL1        0.0005
     15 C         138.3726  142.7469  161.1974 C.3     1  UNL1        0.0005
     16 C         140.0752  143.0361  158.8003 C.3     1  UNL1        0.0162
     17 N         141.8801  143.9793  157.1870 N.3     1  UNL1       -0.2962
     18 H         141.1795  143.8235  156.4623 H       1  UNL1        0.1235
     19 C         143.7423  142.9412  155.7021 C.3     1  UNL1        0.0220
     20 C         142.9543  142.9533  156.9785 C.3     1  UNL1        0.0768
     21 C         143.2405  141.9394  158.0462 C.ar    1  UNL1       -0.0079
     22 C         143.9725  142.3468  159.2905 C.ar    1  UNL1       -0.0007
     23 C         144.2587  141.3329  160.3582 C.ar    1  UNL1        0.0294
     24 C         143.8129  139.9116  160.1817 C.ar    1  UNL1        0.1401
     25 F         144.0991  138.8977  161.2494 F       1  UNL1       -0.2042
     26 C         143.0808  139.5042  158.9374 C.ar    1  UNL1        0.0294
     27 C         142.7946  140.5181  157.8697 C.ar    1  UNL1       -0.0007
     28 C         141.9720  141.6285  166.5241 C.2     1  UNL1        0.2286
     29 O         142.9962  142.3010  167.3895 O.2     1  UNL1       -0.2746
     30 N         142.1762  140.2086  166.0858 N.am    1  UNL1       -0.2793
     31 C         143.3483  139.3390  166.4319 C.3     1  UNL1        0.0935
     32 C         143.1407  138.0019  165.7846 C.3     1  UNL1        0.0233
     33 C         141.8402  138.0452  165.0383 C.3     1  UNL1        0.0233
     34 C         141.2441  139.4090  165.2246 C.3     1  UNL1        0.0935
     35 C         140.4356  142.1783  167.5517 C.ar    1  UNL1       -0.0145
     36 C         140.5878  143.3202  168.5125 C.ar    1  UNL1       -0.0038
     37 C         140.2797  143.1226  169.9671 C.ar    1  UNL1       -0.0003
     38 C         139.8196  141.7831  170.4610 C.ar    1  UNL1       -0.0000
     39 C         139.6674  140.6412  169.5002 C.ar    1  UNL1       -0.0003
     40 C         139.9755  140.8389  168.0456 C.ar    1  UNL1       -0.0038
@<TRIPOS>BOND
     1    20    19    1
     2    20    17    1
     3     9    17    1
     4     9    10    1
     5    10    11    1
     6    11    12    1
     7    12     1    1
     8     1     2    2
     9     1     3   am
    10     3     4    1
    11     4     5    1
    12     5     6    1
    13     6    28    1
    14    28    29    2
    15    28    30   am
    16    30    31    1
    17    31    32    1
    18    32    33    1
    19    33    34    1
    20     6    35    1
    21    35    36   ar
    22    36    37   ar
    23    37    38   ar
    24    38    39   ar
    25    39    40   ar
    26     6     7    1
    27     7     8    1
    28    12    13    1
    29    13    14    1
    30    13    15    1
    31    13    16    1
    32    20    21    1
    33    21    22   ar
    34    22    23   ar
    35    23    24   ar
    36    24    25    1
    37    24    26   ar
    38    26    27   ar
    39    16     9    1
    40    27    21   ar
    41     8     3    1
    42    34    30    1
    43    40    35   ar
    44    17    18    1
@<TRIPOS>MOLECULE
*****
 40 44 0 0 0
SMALL
GASTEIGER

@<TRIPOS>ATOM
      1 C         140.6286  144.5583  162.3791 C.2     1  UNL1        0.2251
      2 O         140.8153  146.0397  162.2361 O.2     1  UNL1       -0.2749
      3 N         140.1993  143.7390  161.1983 N.am    1  UNL1       -0.2795
      4 C         140.0127  142.2575  161.3413 C.3     1  UNL1        0.0942
      5 C         139.5834  141.4382  160.1604 C.3     1  UNL1        0.0343
      6 C         139.3407  142.1003  158.8366 C.3     1  UNL1        0.0911
      7 C         139.5274  143.5818  158.6935 C.3     1  UNL1        0.0343
      8 C         139.9567  144.4011  159.8743 C.3     1  UNL1        0.0942
      9 C         141.3567  142.5719  166.3508 C.3     1  UNL1        0.0542
     10 C         142.3972  142.4971  165.2729 C.3     1  UNL1        0.0162
     11 C         142.1545  143.1592  163.9491 C.3     1  UNL1        0.0104
     12 C         140.8713  143.8962  163.7031 C.3     1  UNL1        0.0768
     13 C         139.8309  143.9709  164.7809 C.3     1  UNL1        0.0095
     14 C         138.5518  144.3175  165.4838 C.3     1  UNL1        0.0005
     15 C         139.1440  144.7534  163.7011 C.3     1  UNL1        0.0005
     16 C         140.0736  143.3088  166.1048 C.3     1  UNL1        0.0162
     17 N         141.5994  141.9098  167.6747 N.3     1  UNL1       -0.2962
     18 H         142.5484  142.1551  167.9571 H       1  UNL1        0.1235
     19 C         142.1205  139.7123  168.9591 C.3     1  UNL1        0.0220
     20 C         141.4816  140.4198  167.8009 C.3     1  UNL1        0.0768
     21 C         140.7248  139.6372  166.7690 C.ar    1  UNL1       -0.0079
     22 C         141.4668  138.8991  165.6944 C.ar    1  UNL1       -0.0007
     23 C         140.7101  138.1165  164.6625 C.ar    1  UNL1        0.0294
     24 C         139.2114  138.0721  164.7051 C.ar    1  UNL1        0.1401
     25 F         138.4546  137.2895  163.6731 F       1  UNL1       -0.2042
     26 C         138.4693  138.8102  165.7796 C.ar    1  UNL1        0.0294
     27 C         139.2260  139.5928  166.8116 C.ar    1  UNL1       -0.0007
     28 C         139.0326  140.6772  158.4764 C.2     1  UNL1        0.2286
     29 O         137.6082  140.2119  158.4100 O.2     1  UNL1       -0.2746
     30 N         140.1490  139.7194  158.1826 N.am    1  UNL1       -0.2793
     31 C         139.9959  138.2744  157.8107 C.3     1  UNL1        0.0935
     32 C         141.3667  137.7003  157.6074 C.3     1  UNL1        0.0233
     33 C         142.3670  138.7906  157.8536 C.3     1  UNL1        0.0233
     34 C         141.6144  140.0384  158.2091 C.3     1  UNL1        0.0935
     35 C         138.9911  142.2683  157.3876 C.ar    1  UNL1       -0.0145
     36 C         137.5620  142.4717  156.9796 C.ar    1  UNL1       -0.0038
     37 C         137.2123  142.6396  155.5306 C.ar    1  UNL1       -0.0003
     38 C         138.2917  142.6041  154.4897 C.ar    1  UNL1       -0.0000
     39 C         139.7208  142.4007  154.8976 C.ar    1  UNL1       -0.0003
     40 C         140.0704  142.2328  156.3466 C.ar    1  UNL1       -0.0038
@<TRIPOS>BOND
     1    20    19    1
     2    20    17    1
     3     9    17    1
     4     9    10    1
     5    10    11    1
     6    11    12    1
     7    12     1    1
     8     1     2    2
     9     1     3   am
    10     3     4    1
    11     4     5    1
    12     5     6    1
    13     6    28    1
    14    28    29    2
    15    28    30   am
    16    30    31    1
    17    31    32    1
    18    32    33    1
    19    33    34    1
    20     6    35    1
    21    35    36   ar
    22    36    37   ar
    23    37    38   ar
    24    38    39   ar
    25    39    40   ar
    26     6     7    1
    27     7     8    1
    28    12    13    1
    29    13    14    1
    30    13    15    1
    31    13    16    1
    32    20    21    1
    33    21    22   ar
    34    22    23   ar
    35    23    24   ar
    36    24    25    1
    37    24    26   ar
    38    26    27   ar
    39    16     9    1
    40    27    21   ar
    41     8     3    1
    42    34    30    1
    43    40    35   ar
    44    17    18    1
@<TRIPOS>MOLECULE
*****
 40 44 0 0 0
SMALL
GASTEIGER

@<TRIPOS>ATOM
      1 C         139.3961  144.3026  161.9423 C.2     1  UNL1        0.2251
      2 O         138.8167  145.6610  162.2051 O.2     1  UNL1       -0.2749
      3 N         139.9828  143.5064  163.0701 N.am    1  UNL1       -0.2795
      4 C         140.5621  142.1480  162.8073 C.3     1  UNL1        0.0942
      5 C         141.1489  141.3519  163.9351 C.3     1  UNL1        0.0343
      6 C         141.1562  141.9141  165.3257 C.3     1  UNL1        0.0911
      7 C         140.5769  143.2726  165.5885 C.3     1  UNL1        0.0343
      8 C         139.9902  144.0687  164.4608 C.3     1  UNL1        0.0942
      9 C         139.3739  142.6158  157.7705 C.3     1  UNL1        0.0542
     10 C         138.4001  142.1055  158.7910 C.3     1  UNL1        0.0162
     11 C         138.4075  142.6678  160.1815 C.3     1  UNL1        0.0104
     12 C         139.3887  143.7403  160.5517 C.3     1  UNL1        0.0768
     13 C         140.3625  144.2505  159.5312 C.3     1  UNL1        0.0095
     14 C         141.4728  145.0528  158.9200 C.3     1  UNL1        0.0005
     15 C         140.7555  145.0914  160.7096 C.3     1  UNL1        0.0005
     16 C         140.3551  143.6883  158.1406 C.3     1  UNL1        0.0162
     17 N         139.3665  142.0535  156.3798 N.3     1  UNL1       -0.2962
     18 H         140.3388  141.8734  156.1299 H       1  UNL1        0.1235
     19 C         137.7738  142.2045  154.3327 C.3     1  UNL1        0.0220
     20 C         138.7694  142.8448  155.2541 C.3     1  UNL1        0.0768
     21 C         139.1680  144.2764  155.0497 C.ar    1  UNL1       -0.0079
     22 C         140.5539  144.6097  154.5827 C.ar    1  UNL1       -0.0007
     23 C         140.9524  146.0413  154.3783 C.ar    1  UNL1        0.0294
     24 C         139.9650  147.1395  154.6408 C.ar    1  UNL1        0.1401
     25 F         140.3636  148.5710  154.4364 F       1  UNL1       -0.2042
     26 C         138.5790  146.8062  155.1077 C.ar    1  UNL1        0.0294
     27 C         138.1805  145.3746  155.3122 C.ar    1  UNL1       -0.0007
     28 C         141.8179  140.5915  165.5760 C.2     1  UNL1        0.2286
     29 O         141.0948  139.5243  166.3428 O.2     1  UNL1       -0.2746
     30 N         143.2029  140.3361  165.0595 N.am    1  UNL1       -0.2793
     31 C         143.9882  139.0697  165.2311 C.3     1  UNL1        0.0935
     32 C         145.3163  139.2530  164.5584 C.3     1  UNL1        0.0233
     33 C         145.3518  140.6329  163.9712 C.3     1  UNL1        0.0233
     34 C         144.0457  141.3022  164.2809 C.3     1  UNL1        0.0935
     35 C         141.3934  142.0171  166.8032 C.ar    1  UNL1       -0.0145
     36 C         140.2388  141.9245  167.7564 C.ar    1  UNL1       -0.0038
     37 C         140.4760  142.0275  169.2339 C.ar    1  UNL1       -0.0003
     38 C         141.8677  142.2230  169.7583 C.ar    1  UNL1       -0.0000
     39 C         143.0222  142.3155  168.8052 C.ar    1  UNL1       -0.0003
     40 C         142.7851  142.2126  167.3276 C.ar    1  UNL1       -0.0038
@<TRIPOS>BOND
     1    20    19    1
     2    20    17    1
     3     9    17    1
     4     9    10    1
     5    10    11    1
     6    11    12    1
     7    12     1    1
     8     1     2    2
     9     1     3   am
    10     3     4    1
    11     4     5    1
    12     5     6    1
    13     6    28    1
    14    28    29    2
    15    28    30   am
    16    30    31    1
    17    31    32    1
    18    32    33    1
    19    33    34    1
    20     6    35    1
    21    35    36   ar
    22    36    37   ar
    23    37    38   ar
    24    38    39   ar
    25    39    40   ar
    26     6     7    1
    27     7     8    1
    28    12    13    1
    29    13    14    1
    30    13    15    1
    31    13    16    1
    32    20    21    1
    33    21    22   ar
    34    22    23   ar
    35    23    24   ar
    36    24    25    1
    37    24    26   ar
    38    26    27   ar
    39    16     9    1
    40    27    21   ar
    41     8     3    1
    42    34    30    1
    43    40    35   ar
    44    17    18    1
@<TRIPOS>MOLECULE
*****
 40 44 0 0 0
SMALL
GASTEIGER

@<TRIPOS>ATOM
      1 C         140.5917  144.2304  161.6955 C.2     1  UNL1        0.2251
      2 O         141.5292  145.2212  162.3195 O.2     1  UNL1       -0.2749
      3 N         140.3056  144.2921  160.2244 N.am    1  UNL1       -0.2795
      4 C         139.3680  143.3013  159.6005 C.3     1  UNL1        0.0942
      5 C         139.0819  143.3630  158.1292 C.3     1  UNL1        0.0343
      6 C         139.7334  144.4156  157.2820 C.3     1  UNL1        0.0911
      7 C         140.6709  145.4064  157.9060 C.3     1  UNL1        0.0343
      8 C         140.9570  145.3447  159.3771 C.3     1  UNL1        0.0942
      9 C         138.6375  141.0728  164.2373 C.3     1  UNL1        0.0542
     10 C         139.7685  140.7057  163.3230 C.3     1  UNL1        0.0162
     11 C         140.4199  141.7582  162.4758 C.3     1  UNL1        0.0104
     12 C         139.9402  143.1779  162.5428 C.3     1  UNL1        0.0768
     13 C         138.8092  143.5450  163.4571 C.3     1  UNL1        0.0095
     14 C         137.7802  144.3782  164.1621 C.3     1  UNL1        0.0005
     15 C         139.1032  144.8869  162.8547 C.3     1  UNL1        0.0005
     16 C         138.1578  142.4925  164.3043 C.3     1  UNL1        0.0162
     17 N         137.9860  140.0203  165.0845 N.3     1  UNL1       -0.2962
     18 H         137.4566  140.5093  165.8063 H       1  UNL1        0.1235
     19 C         138.5862  137.5340  165.5409 C.3     1  UNL1        0.0220
     20 C         138.8271  138.9944  165.7846 C.3     1  UNL1        0.0768
     21 C         139.9091  139.4288  166.7283 C.ar    1  UNL1       -0.0079
     22 C         139.5526  139.9524  168.0880 C.ar    1  UNL1       -0.0007
     23 C         140.6346  140.3868  169.0317 C.ar    1  UNL1        0.0294
     24 C         142.0730  140.2976  168.6158 C.ar    1  UNL1        0.1401
     25 F         143.1550  140.7320  169.5595 F       1  UNL1       -0.2042
     26 C         142.4295  139.7740  167.2560 C.ar    1  UNL1        0.0294
     27 C         141.3475  139.3396  166.3123 C.ar    1  UNL1       -0.0007
     28 C         138.9245  143.7045  156.2380 C.2     1  UNL1        0.2286
     29 O         137.6907  144.3481  155.6780 O.2     1  UNL1       -0.2746
     30 N         139.3494  142.3499  155.7538 N.am    1  UNL1       -0.2793
     31 C         138.6451  141.5222  154.7200 C.3     1  UNL1        0.0935
     32 C         139.4136  140.2459  154.5457 C.3     1  UNL1        0.0233
     33 C         140.5929  140.2848  155.4718 C.3     1  UNL1        0.0233
     34 C         140.5532  141.5851  156.2184 C.3     1  UNL1        0.0935
     35 C         140.1039  145.2212  156.0722 C.ar    1  UNL1       -0.0145
     36 C         141.1283  144.6994  155.1086 C.ar    1  UNL1       -0.0038
     37 C         141.4988  145.5050  153.8988 C.ar    1  UNL1       -0.0003
     38 C         140.8451  146.8323  153.6525 C.ar    1  UNL1       -0.0000
     39 C         139.8207  147.3541  154.6161 C.ar    1  UNL1       -0.0003
     40 C         139.4501  146.5485  155.8259 C.ar    1  UNL1       -0.0038
@<TRIPOS>BOND
     1    20    19    1
     2    20    17    1
     3     9    17    1
     4     9    10    1
     5    10    11    1
     6    11    12    1
     7    12     1    1
     8     1     2    2
     9     1     3   am
    10     3     4    1
    11     4     5    1
    12     5     6    1
    13     6    28    1
    14    28    29    2
    15    28    30   am
    16    30    31    1
    17    31    32    1
    18    32    33    1
    19    33    34    1
    20     6    35    1
    21    35    36   ar
    22    36    37   ar
    23    37    38   ar
    24    38    39   ar
    25    39    40   ar
    26     6     7    1
    27     7     8    1
    28    12    13    1
    29    13    14    1
    30    13    15    1
    31    13    16    1
    32    20    21    1
    33    21    22   ar
    34    22    23   ar
    35    23    24   ar
    36    24    25    1
    37    24    26   ar
    38    26    27   ar
    39    16     9    1
    40    27    21   ar
    41     8     3    1
    42    34    30    1
    43    40    35   ar
    44    17    18    1
@<TRIPOS>MOLECULE
*****
 40 44 0 0 0
SMALL
GASTEIGER

@<TRIPOS>ATOM
      1 C         139.4901  144.2570  161.8617 C.2     1  UNL1        0.2251
      2 O         138.9638  145.6518  162.0281 O.2     1  UNL1       -0.2749
      3 N         140.0565  143.5234  163.0411 N.am    1  UNL1       -0.2795
      4 C         140.5827  142.1286  162.8747 C.3     1  UNL1        0.0942
      5 C         141.1491  141.3950  164.0541 C.3     1  UNL1        0.0343
      6 C         141.1893  142.0562  165.3999 C.3     1  UNL1        0.0911
      7 C         140.6631  143.4510  165.5663 C.3     1  UNL1        0.0343
      8 C         140.0967  144.1846  164.3869 C.3     1  UNL1        0.0942
      9 C         139.3694  142.2735  157.8242 C.3     1  UNL1        0.0542
     10 C         138.4043  141.8562  158.8940 C.3     1  UNL1        0.0162
     11 C         138.4445  142.5174  160.2398 C.3     1  UNL1        0.0104
     12 C         139.4499  143.5958  160.5158 C.3     1  UNL1        0.0768
     13 C         140.4150  144.0131  159.4461 C.3     1  UNL1        0.0095
     14 C         141.5284  144.7487  158.7611 C.3     1  UNL1        0.0005
     15 C         140.8419  144.9298  160.5540 C.3     1  UNL1        0.0005
     16 C         140.3748  143.3519  158.1003 C.3     1  UNL1        0.0162
     17 N         139.3292  141.6123  156.4784 N.3     1  UNL1       -0.2962
     18 H         138.3914  141.2268  156.3676 H       1  UNL1        0.1235
     19 C         140.3008  139.8967  154.7863 C.3     1  UNL1        0.0220
     20 C         140.2920  140.5082  156.1561 C.3     1  UNL1        0.0768
     21 C         141.2461  140.0156  157.2035 C.ar    1  UNL1       -0.0079
     22 C         140.8094  138.9656  158.1816 C.ar    1  UNL1       -0.0007
     23 C         141.7634  138.4729  159.2289 C.ar    1  UNL1        0.0294
     24 C         143.1543  139.0303  159.2982 C.ar    1  UNL1        0.1401
     25 F         144.1084  138.5376  160.3456 F       1  UNL1       -0.2042
     26 C         143.5911  140.0803  158.3201 C.ar    1  UNL1        0.0294
     27 C         142.6370  140.5730  157.2727 C.ar    1  UNL1       -0.0007
     28 C         141.8036  140.7313  165.7422 C.2     1  UNL1        0.2286
     29 O         141.0779  139.7792  166.6460 O.2     1  UNL1       -0.2746
     30 N         143.1436  140.3584  165.1806 N.am    1  UNL1       -0.2793
     31 C         143.8791  139.0756  165.4326 C.3     1  UNL1        0.0935
     32 C         145.1734  139.1272  164.6763 C.3     1  UNL1        0.0233
     33 C         145.2378  140.4419  163.9568 C.3     1  UNL1        0.0233
     34 C         143.9833  141.2027  164.2686 C.3     1  UNL1        0.0935
     35 C         141.4428  142.2572  166.8646 C.ar    1  UNL1       -0.0145
     36 C         142.8437  142.2008  167.3979 C.ar    1  UNL1       -0.0038
     37 C         143.0972  142.4018  168.8626 C.ar    1  UNL1       -0.0003
     38 C         141.9499  142.6593  169.7939 C.ar    1  UNL1       -0.0000
     39 C         140.5491  142.7158  169.2606 C.ar    1  UNL1       -0.0003
     40 C         140.2956  142.5148  167.7959 C.ar    1  UNL1       -0.0038
@<TRIPOS>BOND
     1    20    19    1
     2    20    17    1
     3     9    17    1
     4     9    10    1
     5    10    11    1
     6    11    12    1
     7    12     1    1
     8     1     2    2
     9     1     3   am
    10     3     4    1
    11     4     5    1
    12     5     6    1
    13     6    28    1
    14    28    29    2
    15    28    30   am
    16    30    31    1
    17    31    32    1
    18    32    33    1
    19    33    34    1
    20     6    35    1
    21    35    36   ar
    22    36    37   ar
    23    37    38   ar
    24    38    39   ar
    25    39    40   ar
    26     6     7    1
    27     7     8    1
    28    12    13    1
    29    13    14    1
    30    13    15    1
    31    13    16    1
    32    20    21    1
    33    21    22   ar
    34    22    23   ar
    35    23    24   ar
    36    24    25    1
    37    24    26   ar
    38    26    27   ar
    39    16     9    1
    40    27    21   ar
    41     8     3    1
    42    34    30    1
    43    40    35   ar
    44    17    18    1
@<TRIPOS>MOLECULE
*****
 40 44 0 0 0
SMALL
GASTEIGER

@<TRIPOS>ATOM
      1 C         143.1813  144.0108  162.4094 C.2     1  UNL1        0.2251
      2 O         144.5084  144.7065  162.4774 O.2     1  UNL1       -0.2749
      3 N         142.6853  143.2249  163.5868 N.am    1  UNL1       -0.2795
      4 C         141.3582  142.5291  163.5188 C.3     1  UNL1        0.0942
      5 C         140.8622  141.7433  164.6963 C.3     1  UNL1        0.0343
      6 C         141.6933  141.6532  165.9417 C.3     1  UNL1        0.0911
      7 C         143.0204  142.3490  166.0097 C.3     1  UNL1        0.0343
      8 C         143.5164  143.1348  164.8323 C.3     1  UNL1        0.0942
      9 C         140.6880  144.2812  158.6731 C.3     1  UNL1        0.0542
     10 C         140.2990  145.0632  159.8925 C.3     1  UNL1        0.0162
     11 C         141.1301  144.9731  161.1379 C.3     1  UNL1        0.0104
     12 C         142.3502  144.1009  161.1639 C.3     1  UNL1        0.0768
     13 C         142.7392  143.3188  159.9445 C.3     1  UNL1        0.0095
     14 C         143.5097  142.3939  159.0496 C.3     1  UNL1        0.0005
     15 C         143.8379  142.9075  160.8791 C.3     1  UNL1        0.0005
     16 C         141.9081  143.4090  158.6991 C.3     1  UNL1        0.0162
     17 N         139.8568  144.3713  157.4276 N.3     1  UNL1       -0.2962
     18 H         139.3071  145.2272  157.5017 H       1  UNL1        0.1235
     19 C         137.8830  143.4703  155.9985 C.3     1  UNL1        0.0220
     20 C         138.8986  143.2696  157.0840 C.3     1  UNL1        0.0768
     21 C         138.9559  141.9672  157.8260 C.ar    1  UNL1       -0.0079
     22 C         139.7158  140.8091  157.2506 C.ar    1  UNL1       -0.0007
     23 C         139.7732  139.5067  157.9925 C.ar    1  UNL1        0.0294
     24 C         139.0705  139.3624  159.3098 C.ar    1  UNL1        0.1401
     25 F         139.1278  138.0600  160.0518 F       1  UNL1       -0.2042
     26 C         138.3105  140.5206  159.8853 C.ar    1  UNL1        0.0294
     27 C         138.2532  141.8230  159.1434 C.ar    1  UNL1       -0.0007
     28 C         140.5124  140.8264  166.3563 C.2     1  UNL1        0.2286
     29 O         139.6366  141.2827  167.4853 O.2     1  UNL1       -0.2746
     30 N         140.2072  139.5433  165.6417 N.am    1  UNL1       -0.2793
     31 C         139.0672  138.6161  165.9427 C.3     1  UNL1        0.0935
     32 C         139.1438  137.4620  164.9878 C.3     1  UNL1        0.0233
     33 C         140.3313  137.6759  164.0965 C.3     1  UNL1        0.0233
     34 C         140.9884  138.9622  164.5007 C.3     1  UNL1        0.0935
     35 C         142.1143  141.2760  167.3311 C.ar    1  UNL1       -0.0145
     36 C         142.2664  139.8306  167.7023 C.ar    1  UNL1       -0.0038
     37 C         142.6874  139.4533  169.0917 C.ar    1  UNL1       -0.0003
     38 C         142.9563  140.5215  170.1099 C.ar    1  UNL1       -0.0000
     39 C         142.8042  141.9669  169.7387 C.ar    1  UNL1       -0.0003
     40 C         142.3832  142.3441  168.3493 C.ar    1  UNL1       -0.0038
@<TRIPOS>BOND
     1    20    19    1
     2    20    17    1
     3     9    17    1
     4     9    10    1
     5    10    11    1
     6    11    12    1
     7    12     1    1
     8     1     2    2
     9     1     3   am
    10     3     4    1
    11     4     5    1
    12     5     6    1
    13     6    28    1
    14    28    29    2
    15    28    30   am
    16    30    31    1
    17    31    32    1
    18    32    33    1
    19    33    34    1
    20     6    35    1
    21    35    36   ar
    22    36    37   ar
    23    37    38   ar
    24    38    39   ar
    25    39    40   ar
    26     6     7    1
    27     7     8    1
    28    12    13    1
    29    13    14    1
    30    13    15    1
    31    13    16    1
    32    20    21    1
    33    21    22   ar
    34    22    23   ar
    35    23    24   ar
    36    24    25    1
    37    24    26   ar
    38    26    27   ar
    39    16     9    1
    40    27    21   ar
    41     8     3    1
    42    34    30    1
    43    40    35   ar
    44    17    18    1
