@<TRIPOS>MOLECULE
*****
 30 33 0 0 0
SMALL
GASTEIGER

@<TRIPOS>ATOM
      1 C         144.8961  142.4551  161.4503 C.3     1  UNL1        0.0493
      2 C         143.9120  142.8839  162.4980 C.2     1  UNL1        0.0588
      3 N         143.8259  142.3510  163.8975 N.2     1  UNL1       -0.2525
      4 C         142.7019  143.0586  164.5946 C.2     1  UNL1        0.0748
      5 C         142.0934  144.0289  163.6259 C.2     1  UNL1       -0.0034
      6 C         140.9396  144.9461  163.9042 C.3     1  UNL1        0.0300
      7 C         142.8413  143.9209  162.3302 C.3     1  UNL1        0.1281
      8 C         142.2634  142.8352  166.0116 C.2     1  UNL1        0.0231
      9 C         141.2079  141.8143  166.3180 C.2     1  UNL1        0.0564
     10 C         140.5041  140.9462  165.3175 C.2     1  UNL1        0.2496
     11 O         140.7323  140.9465  163.8349 O.2     1  UNL1       -0.2698
     12 N         139.5322  140.0778  166.0599 N.am    1  UNL1       -0.2804
     13 C         139.6353  140.4092  167.5192 C.ar    1  UNL1        0.0508
     14 C         138.9199  139.8723  168.7233 C.ar    1  UNL1        0.0170
     15 C         139.2402  140.4087  170.0869 C.ar    1  UNL1        0.0309
     16 C         140.2759  141.4820  170.2465 C.ar    1  UNL1        0.1402
     17 F         140.5962  142.0183  171.6103 F       1  UNL1       -0.2042
     18 C         140.9913  142.0188  169.0424 C.ar    1  UNL1        0.0310
     19 C         140.6710  141.4824  167.6787 C.ar    1  UNL1        0.0201
     20 H         138.9320  139.4079  165.6596 H       1  UNL1        0.1552
     21 N         142.5667  144.7112  161.0852 N.am    1  UNL1       -0.2968
     22 C         141.8157  144.0832  159.9486 C.2     1  UNL1        0.2372
     23 O         141.3393  142.6650  160.0571 O.2     1  UNL1       -0.2736
     24 H         142.8794  145.6420  161.0140 H       1  UNL1        0.1500
     25 C         141.5411  144.8735  158.7036 C.3     1  UNL1        0.1315
     26 C         140.1951  145.3418  158.2355 C.3     1  UNL1        0.0265
     27 C         140.3864  146.0919  156.9507 C.3     1  UNL1        0.0190
     28 C         141.8506  146.0872  156.6248 C.3     1  UNL1        0.0689
     29 N         142.5641  145.3342  157.7082 N.3     1  UNL1       -0.2913
     30 H         143.2417  145.9444  158.1653 H       1  UNL1        0.1236
@<TRIPOS>BOND
     1     1     2    1
     2     2     3    2
     3     3     4    1
     4     4     8    1
     5     8     9    2
     6     9    10    1
     7    10    11    2
     8    10    12   am
     9    12    13    1
    10    13    14   ar
    11    14    15   ar
    12    15    16   ar
    13    16    17    1
    14    16    18   ar
    15    18    19   ar
    16     4     5    2
    17     5     6    1
    18     5     7    1
    19     7    21    1
    20    21    22   am
    21    22    23    2
    22    25    22    1
    23    25    26    1
    24    26    27    1
    25    27    28    1
    26    28    29    1
    27     7     2    1
    28    29    25    1
    29    19     9    1
    30    19    13   ar
    31    12    20    1
    32    21    24    1
    33    29    30    1
@<TRIPOS>MOLECULE
*****
 30 33 0 0 0
SMALL
GASTEIGER

@<TRIPOS>ATOM
      1 C         137.3305  139.8474  160.3012 C.3     1  UNL1        0.0493
      2 C         137.8382  140.5204  161.5419 C.2     1  UNL1        0.0588
      3 N         137.9322  139.9016  162.9051 N.2     1  UNL1       -0.2525
      4 C         138.4931  140.9292  163.8429 C.2     1  UNL1        0.0748
      5 C         138.7459  142.1830  163.0593 C.2     1  UNL1       -0.0034
      6 C         139.3052  143.4644  163.6025 C.3     1  UNL1        0.0300
      7 C         138.3411  141.9304  161.6372 C.3     1  UNL1        0.1281
      8 C         138.7553  140.7366  165.3073 C.2     1  UNL1        0.0231
      9 C         140.1158  140.3134  165.7763 C.2     1  UNL1        0.0564
     10 C         141.3060  140.0469  164.9032 C.2     1  UNL1        0.2496
     11 O         141.3447  140.1567  163.4077 O.2     1  UNL1       -0.2698
     12 N         142.4507  139.6512  165.7881 N.am    1  UNL1       -0.2804
     13 C         141.9679  139.6732  167.2081 C.ar    1  UNL1        0.0508
     14 C         142.6559  139.3735  168.5069 C.ar    1  UNL1        0.0170
     15 C         141.9009  139.4830  169.7983 C.ar    1  UNL1        0.0309
     16 C         140.4578  139.8922  169.7910 C.ar    1  UNL1        0.1402
     17 F         139.7028  140.0017  171.0825 F       1  UNL1       -0.2042
     18 C         139.7698  140.1920  168.4923 C.ar    1  UNL1        0.0310
     19 C         140.5249  140.0825  167.2008 C.ar    1  UNL1        0.0201
     20 H         143.3593  139.4180  165.4894 H       1  UNL1        0.1552
     21 N         138.4246  142.9149  160.5086 N.am    1  UNL1       -0.2968
     22 C         139.7253  143.1253  159.7916 C.2     1  UNL1        0.2372
     23 O         140.9424  142.3512  160.2032 O.2     1  UNL1       -0.2736
     24 H         137.6258  143.4229  160.2384 H       1  UNL1        0.1500
     25 C         139.8088  144.1098  158.6630 C.3     1  UNL1        0.1315
     26 C         140.3714  145.4979  158.7437 C.3     1  UNL1        0.0265
     27 C         140.2546  146.1250  157.3861 C.3     1  UNL1        0.0190
     28 C         139.6198  145.1245  156.4664 C.3     1  UNL1        0.0689
     29 N         139.3443  143.8790  157.2555 N.3     1  UNL1       -0.2913
     30 H         139.8503  143.0924  156.8486 H       1  UNL1        0.1236
@<TRIPOS>BOND
     1     1     2    1
     2     2     3    2
     3     3     4    1
     4     4     8    1
     5     8     9    2
     6     9    10    1
     7    10    11    2
     8    10    12   am
     9    12    13    1
    10    13    14   ar
    11    14    15   ar
    12    15    16   ar
    13    16    17    1
    14    16    18   ar
    15    18    19   ar
    16     4     5    2
    17     5     6    1
    18     5     7    1
    19     7    21    1
    20    21    22   am
    21    22    23    2
    22    25    22    1
    23    25    26    1
    24    26    27    1
    25    27    28    1
    26    28    29    1
    27     7     2    1
    28    29    25    1
    29    19     9    1
    30    19    13   ar
    31    12    20    1
    32    21    24    1
    33    29    30    1
@<TRIPOS>MOLECULE
*****
 30 33 0 0 0
SMALL
GASTEIGER

@<TRIPOS>ATOM
      1 C         139.9795  145.9049  161.2921 C.3     1  UNL1        0.0493
      2 C         139.6253  144.9325  162.3779 C.2     1  UNL1        0.0588
      3 N         140.0509  145.0206  163.8135 N.2     1  UNL1       -0.2525
      4 C         139.4719  143.8439  164.5416 C.2     1  UNL1        0.0748
      5 C         138.6885  143.0286  163.5560 C.2     1  UNL1       -0.0034
      6 C         137.9415  141.7628  163.8551 C.3     1  UNL1        0.0300
      7 C         138.7833  143.7014  162.2187 C.3     1  UNL1        0.1281
      8 C         139.6459  143.5365  165.9995 C.2     1  UNL1        0.0231
      9 C         140.8680  142.8058  166.4713 C.2     1  UNL1        0.0564
     10 C         141.9946  142.3222  165.6072 C.2     1  UNL1        0.2496
     11 O         142.0970  142.4844  164.1195 O.2     1  UNL1       -0.2698
     12 N         143.0009  141.6480  166.4920 N.am    1  UNL1       -0.2804
     13 C         142.4962  141.7149  167.9029 C.ar    1  UNL1        0.0508
     14 C         143.0666  141.2167  169.1976 C.ar    1  UNL1        0.0170
     15 C         142.3188  141.4340  170.4796 C.ar    1  UNL1        0.0309
     16 C         141.0006  142.1496  170.4669 C.ar    1  UNL1        0.1402
     17 F         140.2528  142.3670  171.7489 F       1  UNL1       -0.2042
     18 C         140.4301  142.6479  169.1721 C.ar    1  UNL1        0.0310
     19 C         141.1779  142.4305  167.8902 C.ar    1  UNL1        0.0201
     20 H         143.8445  141.2342  166.1982 H       1  UNL1        0.1552
     21 N         138.1477  143.2265  160.9457 N.am    1  UNL1       -0.2968
     22 C         138.9809  142.5476  159.8993 C.2     1  UNL1        0.2372
     23 O         140.4496  142.3436  160.1258 O.2     1  UNL1       -0.2736
     24 H         137.1837  143.3604  160.7970 H       1  UNL1        0.1500
     25 C         138.3453  142.0727  158.6263 C.3     1  UNL1        0.1315
     26 C         138.2580  140.6490  158.1622 C.3     1  UNL1        0.0265
     27 C         137.5441  140.6345  156.8430 C.3     1  UNL1        0.0190
     28 C         137.1902  142.0492  156.4919 C.3     1  UNL1        0.0689
     29 N         137.6853  142.9380  157.5941 N.3     1  UNL1       -0.2913
     30 H         136.9020  143.4397  158.0125 H       1  UNL1        0.1236
@<TRIPOS>BOND
     1     1     2    1
     2     2     3    2
     3     3     4    1
     4     4     8    1
     5     8     9    2
     6     9    10    1
     7    10    11    2
     8    10    12   am
     9    12    13    1
    10    13    14   ar
    11    14    15   ar
    12    15    16   ar
    13    16    17    1
    14    16    18   ar
    15    18    19   ar
    16     4     5    2
    17     5     6    1
    18     5     7    1
    19     7    21    1
    20    21    22   am
    21    22    23    2
    22    25    22    1
    23    25    26    1
    24    26    27    1
    25    27    28    1
    26    28    29    1
    27     7     2    1
    28    29    25    1
    29    19     9    1
    30    19    13   ar
    31    12    20    1
    32    21    24    1
    33    29    30    1
@<TRIPOS>MOLECULE
*****
 30 33 0 0 0
SMALL
GASTEIGER

@<TRIPOS>ATOM
      1 C         143.5494  140.3354  160.8945 C.3     1  UNL1        0.0493
      2 C         142.6233  140.7316  162.0060 C.2     1  UNL1        0.0588
      3 N         142.6084  140.1527  163.3897 N.2     1  UNL1       -0.2525
      4 C         141.5254  140.8396  164.1677 C.2     1  UNL1        0.0748
      5 C         140.8711  141.8429  163.2649 C.2     1  UNL1       -0.0034
      6 C         139.7373  142.7531  163.6334 C.3     1  UNL1        0.0300
      7 C         141.5496  141.7761  161.9288 C.3     1  UNL1        0.1281
      8 C         141.1608  140.5703  165.5977 C.2     1  UNL1        0.0231
      9 C         141.9123  141.2497  166.7040 C.2     1  UNL1        0.0564
     10 C         143.0456  142.2177  166.5352 C.2     1  UNL1        0.2496
     11 O         143.6264  142.6765  165.2305 O.2     1  UNL1       -0.2698
     12 N         143.4961  142.6465  167.9001 N.am    1  UNL1       -0.2804
     13 C         142.6413  141.9434  168.9126 C.ar    1  UNL1        0.0508
     14 C         142.6277  141.9778  170.4121 C.ar    1  UNL1        0.0170
     15 C         141.6354  141.1489  171.1723 C.ar    1  UNL1        0.0309
     16 C         140.6565  140.2856  170.4330 C.ar    1  UNL1        0.1402
     17 F         139.6641  139.4566  171.1933 F       1  UNL1       -0.2042
     18 C         140.6700  140.2512  168.9335 C.ar    1  UNL1        0.0310
     19 C         141.6624  141.0801  168.1733 C.ar    1  UNL1        0.0201
     20 H         144.2249  143.2784  168.0970 H       1  UNL1        0.1552
     21 N         141.2135  142.6079  160.7267 N.am    1  UNL1       -0.2968
     22 C         142.0439  143.8112  160.3913 C.2     1  UNL1        0.2372
     23 O         143.2105  144.1827  161.2579 O.2     1  UNL1       -0.2736
     24 H         140.4478  142.3641  160.1578 H       1  UNL1        0.1500
     25 C         141.7078  144.6430  159.1891 C.3     1  UNL1        0.1315
     26 C         140.3667  145.2370  158.8750 C.3     1  UNL1        0.0265
     27 C         140.4838  145.9879  157.5818 C.3     1  UNL1        0.0190
     28 C         141.8972  145.8580  157.0967 C.3     1  UNL1        0.0689
     29 N         142.6536  145.0268  158.0901 N.3     1  UNL1       -0.2913
     30 H         143.4293  145.5667  158.4738 H       1  UNL1        0.1236
@<TRIPOS>BOND
     1     1     2    1
     2     2     3    2
     3     3     4    1
     4     4     8    1
     5     8     9    2
     6     9    10    1
     7    10    11    2
     8    10    12   am
     9    12    13    1
    10    13    14   ar
    11    14    15   ar
    12    15    16   ar
    13    16    17    1
    14    16    18   ar
    15    18    19   ar
    16     4     5    2
    17     5     6    1
    18     5     7    1
    19     7    21    1
    20    21    22   am
    21    22    23    2
    22    25    22    1
    23    25    26    1
    24    26    27    1
    25    27    28    1
    26    28    29    1
    27     7     2    1
    28    29    25    1
    29    19     9    1
    30    19    13   ar
    31    12    20    1
    32    21    24    1
    33    29    30    1
@<TRIPOS>MOLECULE
*****
 30 33 0 0 0
SMALL
GASTEIGER

@<TRIPOS>ATOM
      1 C         137.3251  139.8819  160.6168 C.3     1  UNL1        0.0493
      2 C         138.1861  139.4848  161.7791 C.2     1  UNL1        0.0588
      3 N         137.9601  139.8621  163.2132 N.2     1  UNL1       -0.2525
      4 C         139.0586  139.2512  164.0318 C.2     1  UNL1        0.0748
      5 C         139.9634  138.4964  163.1037 C.2     1  UNL1       -0.0034
      6 C         141.1918  137.7314  163.4985 C.3     1  UNL1        0.0300
      7 C         139.4242  138.6408  161.7114 C.3     1  UNL1        0.1281
      8 C         139.2233  139.3737  165.5178 C.2     1  UNL1        0.0231
      9 C         139.7373  140.6511  166.1126 C.2     1  UNL1        0.0564
     10 C         140.1257  141.8843  165.3520 C.2     1  UNL1        0.2496
     11 O         140.0683  142.0565  163.8631 O.2     1  UNL1       -0.2698
     12 N         140.5817  142.9149  166.3419 N.am    1  UNL1       -0.2804
     13 C         140.4750  142.3188  167.7142 C.ar    1  UNL1        0.0508
     14 C         140.7857  142.8692  169.0745 C.ar    1  UNL1        0.0170
     15 C         140.5745  142.0205  170.2931 C.ar    1  UNL1        0.0309
     16 C         140.0527  140.6214  170.1514 C.ar    1  UNL1        0.1402
     17 F         139.8415  139.7727  171.3701 F       1  UNL1       -0.2042
     18 C         139.7420  140.0710  168.7911 C.ar    1  UNL1        0.0310
     19 C         139.9532  140.9197  167.5725 C.ar    1  UNL1        0.0201
     20 H         140.8957  143.8232  166.1283 H       1  UNL1        0.1552
     21 N         140.0187  138.0456  160.4695 N.am    1  UNL1       -0.2968
     22 C         140.9018  138.8777  159.5876 C.2     1  UNL1        0.2372
     23 O         141.1905  140.3050  159.9476 O.2     1  UNL1       -0.2736
     24 H         139.8292  137.1088  160.2332 H       1  UNL1        0.1500
     25 C         141.4963  138.2825  158.3457 C.3     1  UNL1        0.1315
     26 C         140.7316  137.7341  157.1776 C.3     1  UNL1        0.0265
     27 C         141.7226  137.2438  156.1639 C.3     1  UNL1        0.0190
     28 C         143.0997  137.4893  156.7054 C.3     1  UNL1        0.0689
     29 N         142.9598  138.1312  158.0539 N.3     1  UNL1       -0.2913
     30 H         143.4083  139.0473  158.0493 H       1  UNL1        0.1236
@<TRIPOS>BOND
     1     1     2    1
     2     2     3    2
     3     3     4    1
     4     4     8    1
     5     8     9    2
     6     9    10    1
     7    10    11    2
     8    10    12   am
     9    12    13    1
    10    13    14   ar
    11    14    15   ar
    12    15    16   ar
    13    16    17    1
    14    16    18   ar
    15    18    19   ar
    16     4     5    2
    17     5     6    1
    18     5     7    1
    19     7    21    1
    20    21    22   am
    21    22    23    2
    22    25    22    1
    23    25    26    1
    24    26    27    1
    25    27    28    1
    26    28    29    1
    27     7     2    1
    28    29    25    1
    29    19     9    1
    30    19    13   ar
    31    12    20    1
    32    21    24    1
    33    29    30    1
@<TRIPOS>MOLECULE
*****
 30 33 0 0 0
SMALL
GASTEIGER

@<TRIPOS>ATOM
      1 C         141.4912  139.5311  160.0376 C.3     1  UNL1        0.0493
      2 C         140.7788  140.3387  161.0817 C.2     1  UNL1        0.0588
      3 N         141.3101  140.6886  162.4401 N.2     1  UNL1       -0.2525
      4 C         140.2697  141.5043  163.1488 C.2     1  UNL1        0.0748
      5 C         139.0954  141.6585  162.2283 C.2     1  UNL1       -0.0034
      6 C         137.8288  142.4024  162.5321 C.3     1  UNL1        0.0300
      7 C         139.4100  140.9381  160.9508 C.3     1  UNL1        0.1281
      8 C         140.3836  142.0670  164.5346 C.2     1  UNL1        0.0231
      9 C         139.9949  141.2309  165.7178 C.2     1  UNL1        0.0564
     10 C         139.4786  139.8234  165.6714 C.2     1  UNL1        0.2496
     11 O         139.2602  139.0047  164.4336 O.2     1  UNL1       -0.2698
     12 N         139.2189  139.3783  167.0801 N.am    1  UNL1       -0.2804
     13 C         139.5748  140.5107  167.9971 C.ar    1  UNL1        0.0508
     14 C         139.5242  140.6471  169.4900 C.ar    1  UNL1        0.0170
     15 C         139.9531  141.9286  170.1410 C.ar    1  UNL1        0.0309
     16 C         140.4327  143.0736  169.2990 C.ar    1  UNL1        0.1402
     17 F         140.8617  144.3552  169.9501 F       1  UNL1       -0.2042
     18 C         140.4834  142.9372  167.8062 C.ar    1  UNL1        0.0310
     19 C         140.0544  141.6557  167.1552 C.ar    1  UNL1        0.0201
     20 H         138.8753  138.4975  167.3546 H       1  UNL1        0.1552
     21 N         138.5134  140.8352  159.7527 N.am    1  UNL1       -0.2968
     22 C         138.4591  141.9567  158.7580 C.2     1  UNL1        0.2372
     23 O         139.3015  143.1810  158.9614 O.2     1  UNL1       -0.2736
     24 H         137.9605  140.0316  159.6192 H       1  UNL1        0.1500
     25 C         137.5625  141.8538  157.5600 C.3     1  UNL1        0.1315
     26 C         137.3631  142.9108  156.5145 C.3     1  UNL1        0.0265
     27 C         136.3852  142.3861  155.5054 C.3     1  UNL1        0.0190
     28 C         135.9801  141.0048  155.9272 C.3     1  UNL1        0.0689
     29 N         136.7077  140.6759  157.1970 N.3     1  UNL1       -0.2913
     30 H         137.2938  139.8530  157.0568 H       1  UNL1        0.1236
@<TRIPOS>BOND
     1     1     2    1
     2     2     3    2
     3     3     4    1
     4     4     8    1
     5     8     9    2
     6     9    10    1
     7    10    11    2
     8    10    12   am
     9    12    13    1
    10    13    14   ar
    11    14    15   ar
    12    15    16   ar
    13    16    17    1
    14    16    18   ar
    15    18    19   ar
    16     4     5    2
    17     5     6    1
    18     5     7    1
    19     7    21    1
    20    21    22   am
    21    22    23    2
    22    25    22    1
    23    25    26    1
    24    26    27    1
    25    27    28    1
    26    28    29    1
    27     7     2    1
    28    29    25    1
    29    19     9    1
    30    19    13   ar
    31    12    20    1
    32    21    24    1
    33    29    30    1
@<TRIPOS>MOLECULE
*****
 30 33 0 0 0
SMALL
GASTEIGER

@<TRIPOS>ATOM
      1 C         140.1755  143.7865  159.4943 C.3     1  UNL1        0.0493
      2 C         140.8696  143.6486  160.8169 C.2     1  UNL1        0.0588
      3 N         140.2135  143.6879  162.1652 N.2     1  UNL1       -0.2525
      4 C         141.2801  143.5107  163.2049 C.2     1  UNL1        0.0748
      5 C         142.5953  143.3619  162.4992 C.2     1  UNL1       -0.0034
      6 C         143.9298  143.1628  163.1544 C.3     1  UNL1        0.0300
      7 C         142.3416  143.4471  161.0232 C.3     1  UNL1        0.1281
      8 C         141.0685  143.4865  164.6898 C.2     1  UNL1        0.0231
      9 C         140.6426  142.2172  165.3661 C.2     1  UNL1        0.0564
     10 C         140.3909  140.9008  164.6925 C.2     1  UNL1        0.2496
     11 O         140.5210  140.6226  163.2243 O.2     1  UNL1       -0.2698
     12 N         139.9864  139.9115  165.7449 N.am    1  UNL1       -0.2804
     13 C         139.9880  140.6164  167.0690 C.ar    1  UNL1        0.0508
     14 C         139.6726  140.1449  168.4575 C.ar    1  UNL1        0.0170
     15 C         139.7627  141.0983  169.6119 C.ar    1  UNL1        0.0309
     16 C         140.1683  142.5233  169.3778 C.ar    1  UNL1        0.1402
     17 F         140.2584  143.4768  170.5323 F       1  UNL1       -0.2042
     18 C         140.4837  142.9949  167.9893 C.ar    1  UNL1        0.0310
     19 C         140.3936  142.0415  166.8349 C.ar    1  UNL1        0.0201
     20 H         139.7596  138.9655  165.5933 H       1  UNL1        0.1552
     21 N         143.3779  143.3482  159.9433 N.am    1  UNL1       -0.2968
     22 C         143.5993  142.0455  159.2334 C.2     1  UNL1        0.2372
     23 O         142.7843  140.8417  159.6033 O.2     1  UNL1       -0.2736
     24 H         143.9128  144.1383  159.7005 H       1  UNL1        0.1500
     25 C         144.6356  141.9466  158.1535 C.3     1  UNL1        0.1315
     26 C         144.6702  140.9251  157.0555 C.3     1  UNL1        0.0265
     27 C         145.8753  141.1991  156.2054 C.3     1  UNL1        0.0190
     28 C         146.5855  142.3898  156.7779 C.3     1  UNL1        0.0689
     29 N         145.8193  142.8517  157.9819 N.3     1  UNL1       -0.2913
     30 H         145.5037  143.8118  157.8439 H       1  UNL1        0.1236
@<TRIPOS>BOND
     1     1     2    1
     2     2     3    2
     3     3     4    1
     4     4     8    1
     5     8     9    2
     6     9    10    1
     7    10    11    2
     8    10    12   am
     9    12    13    1
    10    13    14   ar
    11    14    15   ar
    12    15    16   ar
    13    16    17    1
    14    16    18   ar
    15    18    19   ar
    16     4     5    2
    17     5     6    1
    18     5     7    1
    19     7    21    1
    20    21    22   am
    21    22    23    2
    22    25    22    1
    23    25    26    1
    24    26    27    1
    25    27    28    1
    26    28    29    1
    27     7     2    1
    28    29    25    1
    29    19     9    1
    30    19    13   ar
    31    12    20    1
    32    21    24    1
    33    29    30    1
@<TRIPOS>MOLECULE
*****
 30 33 0 0 0
SMALL
GASTEIGER

@<TRIPOS>ATOM
      1 C         140.9064  143.2676  160.0155 C.3     1  UNL1        0.0493
      2 C         141.8730  143.0322  161.1380 C.2     1  UNL1        0.0588
      3 N         141.5677  143.1436  162.6023 N.2     1  UNL1       -0.2525
      4 C         142.8207  142.8242  163.3626 C.2     1  UNL1        0.0748
      5 C         143.9003  142.5154  162.3682 C.2     1  UNL1       -0.0034
      6 C         145.3169  142.1433  162.6918 C.3     1  UNL1        0.0300
      7 C         143.3146  142.6439  160.9932 C.3     1  UNL1        0.1281
      8 C         142.9681  142.8153  164.8554 C.2     1  UNL1        0.0231
      9 C         142.7161  141.5535  165.6264 C.2     1  UNL1        0.0564
     10 C         142.3126  140.2308  165.0452 C.2     1  UNL1        0.2496
     11 O         142.0903  139.9377  163.5910 O.2     1  UNL1       -0.2698
     12 N         142.1706  139.2527  166.1736 N.am    1  UNL1       -0.2804
     13 C         142.4863  139.9709  167.4521 C.ar    1  UNL1        0.0508
     14 C         142.5103  139.5137  168.8805 C.ar    1  UNL1        0.0170
     15 C         142.8714  140.4785  169.9707 C.ar    1  UNL1        0.0309
     16 C         143.2086  141.9005  169.6326 C.ar    1  UNL1        0.1402
     17 F         143.5698  142.8653  170.7229 F       1  UNL1       -0.2042
     18 C         143.1846  142.3576  168.2042 C.ar    1  UNL1        0.0310
     19 C         142.8234  141.3928  167.1139 C.ar    1  UNL1        0.0201
     20 H         141.9150  138.3057  166.0897 H       1  UNL1        0.1552
     21 N         144.0427  142.4229  159.7005 N.am    1  UNL1       -0.2968
     22 C         143.8693  141.1340  158.9530 C.2     1  UNL1        0.2372
     23 O         142.9679  140.0662  159.4981 O.2     1  UNL1       -0.2736
     24 H         144.6343  143.1238  159.3427 H       1  UNL1        0.1500
     25 C         144.5974  140.9130  157.6603 C.3     1  UNL1        0.1315
     26 C         145.5402  141.8772  157.0035 C.3     1  UNL1        0.0265
     27 C         146.0360  141.2491  155.7347 C.3     1  UNL1        0.0190
     28 C         145.3995  139.8969  155.6074 C.3     1  UNL1        0.0689
     29 N         144.5104  139.6892  156.7975 N.3     1  UNL1       -0.2913
     30 H         144.8211  138.8722  157.3233 H       1  UNL1        0.1236
@<TRIPOS>BOND
     1     1     2    1
     2     2     3    2
     3     3     4    1
     4     4     8    1
     5     8     9    2
     6     9    10    1
     7    10    11    2
     8    10    12   am
     9    12    13    1
    10    13    14   ar
    11    14    15   ar
    12    15    16   ar
    13    16    17    1
    14    16    18   ar
    15    18    19   ar
    16     4     5    2
    17     5     6    1
    18     5     7    1
    19     7    21    1
    20    21    22   am
    21    22    23    2
    22    25    22    1
    23    25    26    1
    24    26    27    1
    25    27    28    1
    26    28    29    1
    27     7     2    1
    28    29    25    1
    29    19     9    1
    30    19    13   ar
    31    12    20    1
    32    21    24    1
    33    29    30    1
@<TRIPOS>MOLECULE
*****
 30 33 0 0 0
SMALL
GASTEIGER

@<TRIPOS>ATOM
      1 C         141.4694  142.1260  159.4951 C.3     1  UNL1        0.0493
      2 C         141.0100  141.2404  160.6152 C.2     1  UNL1        0.0588
      3 N         140.7609  141.6674  162.0314 N.2     1  UNL1       -0.2525
      4 C         140.3160  140.4632  162.8072 C.2     1  UNL1        0.0748
      5 C         140.2900  139.2920  161.8705 C.2     1  UNL1       -0.0034
      6 C         139.9031  137.8871  162.2261 C.3     1  UNL1        0.0300
      7 C         140.7190  139.7723  160.5157 C.3     1  UNL1        0.1281
      8 C         139.9595  140.4352  164.2640 C.2     1  UNL1        0.0231
      9 C         141.0120  140.1286  165.2879 C.2     1  UNL1        0.0564
     10 C         142.4552  139.8314  165.0071 C.2     1  UNL1        0.2496
     11 O         143.0993  139.7885  163.6531 O.2     1  UNL1       -0.2698
     12 N         143.1411  139.5845  166.3180 N.am    1  UNL1       -0.2804
     13 C         142.1219  139.7292  167.4090 C.ar    1  UNL1        0.0508
     14 C         142.2221  139.5982  168.8999 C.ar    1  UNL1        0.0170
     15 C         141.0063  139.8034  169.7541 C.ar    1  UNL1        0.0309
     16 C         139.6904  140.1397  169.1174 C.ar    1  UNL1        0.1402
     17 F         138.4746  140.3450  169.9718 F       1  UNL1       -0.2042
     18 C         139.5902  140.2707  167.6266 C.ar    1  UNL1        0.0310
     19 C         140.8060  140.0655  166.7723 C.ar    1  UNL1        0.0201
     20 H         144.0932  139.3659  166.4408 H       1  UNL1        0.1552
     21 N         140.8363  138.9320  159.2787 N.am    1  UNL1       -0.2968
     22 C         139.6739  138.8164  158.3377 C.2     1  UNL1        0.2372
     23 O         138.3943  139.5409  158.6336 O.2     1  UNL1       -0.2736
     24 H         141.6761  138.4565  159.0845 H       1  UNL1        0.1500
     25 C         139.7912  137.9761  157.1007 C.3     1  UNL1        0.1315
     26 C         140.9714  137.1342  156.7153 C.3     1  UNL1        0.0265
     27 C         140.6585  136.4680  155.4083 C.3     1  UNL1        0.0190
     28 C         139.2850  136.8981  154.9859 C.3     1  UNL1        0.0689
     29 N         138.7490  137.8302  156.0318 N.3     1  UNL1       -0.2913
     30 H         137.8936  137.4455  156.4327 H       1  UNL1        0.1236
@<TRIPOS>BOND
     1     1     2    1
     2     2     3    2
     3     3     4    1
     4     4     8    1
     5     8     9    2
     6     9    10    1
     7    10    11    2
     8    10    12   am
     9    12    13    1
    10    13    14   ar
    11    14    15   ar
    12    15    16   ar
    13    16    17    1
    14    16    18   ar
    15    18    19   ar
    16     4     5    2
    17     5     6    1
    18     5     7    1
    19     7    21    1
    20    21    22   am
    21    22    23    2
    22    25    22    1
    23    25    26    1
    24    26    27    1
    25    27    28    1
    26    28    29    1
    27     7     2    1
    28    29    25    1
    29    19     9    1
    30    19    13   ar
    31    12    20    1
    32    21    24    1
    33    29    30    1
