@<TRIPOS>MOLECULE
*****
 34 36 0 0 0
SMALL
GASTEIGER

@<TRIPOS>ATOM
      1 N         140.0932  138.4088  161.8534 N.3     1  UNL1       -0.2670
      2 C         141.3386  138.2682  161.0295 C.3     1  UNL1        0.1035
      3 C         142.6616  138.6981  161.5905 C.3     1  UNL1        0.1470
      4 C         143.9847  139.1280  162.1516 C.3     1  UNL1        0.1035
      5 N         144.0622  139.6986  163.5366 N.3     1  UNL1       -0.2673
      6 C         142.8168  139.8392  164.3606 C.3     1  UNL1        0.1035
      7 C         141.4937  139.4093  163.7995 C.3     1  UNL1        0.1470
      8 C         140.1707  138.9794  163.2385 C.3     1  UNL1        0.1035
      9 O         142.7392  139.2687  162.9756 O.3     1  UNL1       -0.3530
     10 C         138.7701  137.9789  161.2924 C.3     1  UNL1        0.0938
     11 C         137.7977  139.0061  160.7932 C.3     1  UNL1        0.1100
     12 C         137.7446  141.3017  162.0089 C.2     1  UNL1        0.4015
     13 O         139.0000  141.7083  161.2959 O.2     1  UNL1       -0.2264
     14 N         137.1434  139.9505  161.7575 N.am    1  UNL1       -0.2692
     15 H         136.3194  139.6836  162.2255 H       1  UNL1        0.1528
     16 O         137.0902  142.2461  162.9732 O.3     1  UNL1       -0.4419
     17 C         138.1889  141.7197  164.7097 C.3     1  UNL1        0.0437
     18 C         137.9230  142.9969  163.9695 C.3     1  UNL1        0.1378
     19 C         137.6570  144.2741  163.2293 C.3     1  UNL1        0.0437
     20 C         138.7557  143.7479  164.9659 C.3     1  UNL1        0.0437
     21 C         145.3853  140.1285  164.0977 C.3     1  UNL1        0.0913
     22 C         145.8879  141.5200  163.8512 C.3     1  UNL1        0.1087
     23 N         145.6209  142.1922  162.5371 N.3     1  UNL1       -0.1780
     24 H         145.5717  141.4550  161.8339 H       1  UNL1        0.1488
     25 S         144.3949  143.0389  162.3632 S.O2    1  UNL1        0.0603
     26 O         144.4671  143.4399  163.8068 O.2     1  UNL1       -0.1530
     27 O         144.3228  142.6379  160.9197 O.2     1  UNL1       -0.1530
     28 C         143.1690  143.8856  162.1893 C.ar    1  UNL1        0.1221
     29 C         142.6412  144.6869  163.3423 C.ar    1  UNL1        0.0222
     30 C         141.4153  145.5336  163.1684 C.ar    1  UNL1        0.0310
     31 C         140.7172  145.5790  161.8415 C.ar    1  UNL1        0.1402
     32 F         139.4913  146.4256  161.6676 F       1  UNL1       -0.2042
     33 C         141.2450  144.7777  160.6886 C.ar    1  UNL1        0.0310
     34 C         142.4709  143.9310  160.8624 C.ar    1  UNL1        0.0222
@<TRIPOS>BOND
     1    17    18    1
     2    18    19    1
     3    18    20    1
     4    18    16    1
     5    16    12    1
     6    12    13    2
     7    12    14   am
     8    14    11    1
     9    11    10    1
    10    10     1    1
    11     1     2    1
    12     2     3    1
    13     3     4    1
    14     4     5    1
    15     5    21    1
    16    21    22    1
    17    22    23    1
    18    23    25    1
    19    25    26    2
    20    25    27    2
    21    25    28    1
    22    28    29   ar
    23    29    30   ar
    24    30    31   ar
    25    31    32    1
    26    31    33   ar
    27    33    34   ar
    28     5     6    1
    29     6     7    1
    30     7     8    1
    31     7     9    1
    32     8     1    1
    33     9     3    1
    34    34    28   ar
    35    14    15    1
    36    23    24    1
@<TRIPOS>MOLECULE
*****
 34 36 0 0 0
SMALL
GASTEIGER

@<TRIPOS>ATOM
      1 N         143.3510  140.7902  164.3659 N.3     1  UNL1       -0.2670
      2 C         143.1042  142.0619  165.1221 C.3     1  UNL1        0.1035
      3 C         142.3354  143.1788  164.4806 C.3     1  UNL1        0.1470
      4 C         141.5667  144.2957  163.8391 C.3     1  UNL1        0.1035
      5 N         141.0447  144.1409  162.4414 N.3     1  UNL1       -0.2673
      6 C         141.2914  142.8692  161.6853 C.3     1  UNL1        0.1035
      7 C         142.0602  141.7523  162.3268 C.3     1  UNL1        0.1470
      8 C         142.8290  140.6354  162.9683 C.3     1  UNL1        0.1035
      9 O         141.8134  143.0240  163.0829 O.3     1  UNL1       -0.3530
     10 C         144.1198  139.6733  165.0075 C.3     1  UNL1        0.0938
     11 C         143.4212  138.7091  165.9196 C.3     1  UNL1        0.1100
     12 C         141.8486  139.6425  167.7651 C.2     1  UNL1        0.4015
     13 O         143.0401  139.9664  168.6166 O.2     1  UNL1       -0.2264
     14 N         142.0391  139.0138  166.4165 N.am    1  UNL1       -0.2692
     15 H         141.2570  138.8012  165.8576 H       1  UNL1        0.1528
     16 O         140.4664  139.9472  168.2620 O.3     1  UNL1       -0.4419
     17 C         140.5203  142.0473  167.9678 C.3     1  UNL1        0.0437
     18 C         140.2294  141.1464  169.1312 C.3     1  UNL1        0.1378
     19 C         139.9386  140.2455  170.2947 C.3     1  UNL1        0.0437
     20 C         139.9924  142.3457  170.0006 C.3     1  UNL1        0.0437
     21 C         140.2759  145.2578  161.7999 C.3     1  UNL1        0.0913
     22 C         138.9864  145.7259  162.4066 C.3     1  UNL1        0.1087
     23 N         137.7951  144.8148  162.4320 N.3     1  UNL1       -0.1780
     24 H         137.4391  144.7689  161.4772 H       1  UNL1        0.1488
     25 S         137.9431  143.3998  162.9074 S.O2    1  UNL1        0.0603
     26 O         137.7188  142.9063  161.5088 O.2     1  UNL1       -0.1530
     27 O         138.1673  143.8933  164.3060 O.2     1  UNL1       -0.1530
     28 C         138.0911  141.9849  163.3829 C.ar    1  UNL1        0.1221
     29 C         137.9576  140.8495  162.4117 C.ar    1  UNL1        0.0222
     30 C         138.1056  139.4346  162.8872 C.ar    1  UNL1        0.0310
     31 C         138.3870  139.1550  164.3338 C.ar    1  UNL1        0.1402
     32 F         138.5350  137.7401  164.8093 F       1  UNL1       -0.2042
     33 C         138.5204  140.2904  165.3049 C.ar    1  UNL1        0.0310
     34 C         138.3725  141.7053  164.8295 C.ar    1  UNL1        0.0222
@<TRIPOS>BOND
     1    17    18    1
     2    18    19    1
     3    18    20    1
     4    18    16    1
     5    16    12    1
     6    12    13    2
     7    12    14   am
     8    14    11    1
     9    11    10    1
    10    10     1    1
    11     1     2    1
    12     2     3    1
    13     3     4    1
    14     4     5    1
    15     5    21    1
    16    21    22    1
    17    22    23    1
    18    23    25    1
    19    25    26    2
    20    25    27    2
    21    25    28    1
    22    28    29   ar
    23    29    30   ar
    24    30    31   ar
    25    31    32    1
    26    31    33   ar
    27    33    34   ar
    28     5     6    1
    29     6     7    1
    30     7     8    1
    31     7     9    1
    32     8     1    1
    33     9     3    1
    34    34    28   ar
    35    14    15    1
    36    23    24    1
@<TRIPOS>MOLECULE
*****
 34 36 0 0 0
SMALL
GASTEIGER

@<TRIPOS>ATOM
      1 N         139.0902  144.0312  162.8732 N.3     1  UNL1       -0.2670
      2 C         139.8404  143.7529  164.1419 C.3     1  UNL1        0.1035
      3 C         139.6780  142.4326  164.8350 C.3     1  UNL1        0.1470
      4 C         139.5156  141.1122  165.5281 C.3     1  UNL1        0.1035
      5 N         138.6030  140.0703  164.9525 N.3     1  UNL1       -0.2673
      6 C         137.8528  140.3486  163.6838 C.3     1  UNL1        0.1035
      7 C         138.0152  141.6689  162.9907 C.3     1  UNL1        0.1470
      8 C         138.1776  142.9892  162.2976 C.3     1  UNL1        0.1035
      9 O         138.7654  141.3906  164.2594 O.3     1  UNL1       -0.3530
     10 C         139.2526  145.3515  162.1800 C.3     1  UNL1        0.0938
     11 C         140.2184  145.4865  161.0404 C.3     1  UNL1        0.1100
     12 C         142.3806  144.0828  161.3634 C.2     1  UNL1        0.4015
     13 O         141.5901  142.8219  161.1754 O.2     1  UNL1       -0.2264
     14 N         141.6947  145.4151  161.2959 N.am    1  UNL1       -0.2692
     15 H         142.2135  146.2427  161.4193 H       1  UNL1        0.1528
     16 O         143.8570  144.0114  161.6189 O.3     1  UNL1       -0.4419
     17 C         144.9185  142.1839  161.8017 C.3     1  UNL1        0.0437
     18 C         144.3812  143.1994  162.7660 C.3     1  UNL1        0.1378
     19 C         143.8438  144.2149  163.7304 C.3     1  UNL1        0.0437
     20 C         144.9054  142.3874  163.9132 C.3     1  UNL1        0.0437
     21 C         138.4406  138.7499  165.6456 C.3     1  UNL1        0.0913
     22 C         138.9565  137.4969  165.0025 C.3     1  UNL1        0.1087
     23 N         140.4335  137.2877  164.8455 N.3     1  UNL1       -0.1780
     24 H         140.5943  136.2812  164.8855 H       1  UNL1        0.1488
     25 S         141.1360  137.7901  163.6190 S.O2    1  UNL1        0.0603
     26 O         140.0496  137.2133  162.7605 O.2     1  UNL1       -0.1530
     27 O         142.2223  138.3669  164.4775 O.2     1  UNL1       -0.1530
     28 C         141.8384  138.2925  162.3926 C.ar    1  UNL1        0.1221
     29 C         141.0560  138.9596  161.3004 C.ar    1  UNL1        0.0222
     30 C         141.7584  139.4620  160.0740 C.ar    1  UNL1        0.0310
     31 C         143.2433  139.2973  159.9397 C.ar    1  UNL1        0.1402
     32 F         143.9457  139.7997  158.7133 F       1  UNL1       -0.2042
     33 C         144.0257  138.6302  161.0318 C.ar    1  UNL1        0.0310
     34 C         143.3233  138.1278  162.2583 C.ar    1  UNL1        0.0222
@<TRIPOS>BOND
     1    17    18    1
     2    18    19    1
     3    18    20    1
     4    18    16    1
     5    16    12    1
     6    12    13    2
     7    12    14   am
     8    14    11    1
     9    11    10    1
    10    10     1    1
    11     1     2    1
    12     2     3    1
    13     3     4    1
    14     4     5    1
    15     5    21    1
    16    21    22    1
    17    22    23    1
    18    23    25    1
    19    25    26    2
    20    25    27    2
    21    25    28    1
    22    28    29   ar
    23    29    30   ar
    24    30    31   ar
    25    31    32    1
    26    31    33   ar
    27    33    34   ar
    28     5     6    1
    29     6     7    1
    30     7     8    1
    31     7     9    1
    32     8     1    1
    33     9     3    1
    34    34    28   ar
    35    14    15    1
    36    23    24    1
@<TRIPOS>MOLECULE
*****
 34 36 0 0 0
SMALL
GASTEIGER

@<TRIPOS>ATOM
      1 N         141.6522  143.0692  160.3121 N.3     1  UNL1       -0.2670
      2 C         142.9749  143.1508  161.0149 C.3     1  UNL1        0.1035
      3 C         143.4107  142.0403  161.9242 C.3     1  UNL1        0.1470
      4 C         143.8466  140.9298  162.8336 C.3     1  UNL1        0.1035
      5 N         142.9598  139.7379  163.0402 N.3     1  UNL1       -0.2673
      6 C         141.6371  139.6563  162.3374 C.3     1  UNL1        0.1035
      7 C         141.2013  140.7668  161.4281 C.3     1  UNL1        0.1470
      8 C         140.7654  141.8773  160.5187 C.3     1  UNL1        0.1035
      9 O         142.5239  140.8483  162.1308 O.3     1  UNL1       -0.3530
     10 C         141.2163  144.1797  159.4028 C.3     1  UNL1        0.0938
     11 C         140.6037  145.4226  159.9771 C.3     1  UNL1        0.1100
     12 C         139.7088  145.1225  162.3976 C.2     1  UNL1        0.4015
     13 O         138.5948  144.2622  161.8791 O.2     1  UNL1       -0.2264
     14 N         140.7133  145.7027  161.4466 N.am    1  UNL1       -0.2692
     15 H         141.4444  146.2674  161.7869 H       1  UNL1        0.1528
     16 O         139.8183  145.4027  163.8672 O.3     1  UNL1       -0.4419
     17 C         138.4617  144.8267  165.3929 C.3     1  UNL1        0.0437
     18 C         139.7476  144.2744  164.8531 C.3     1  UNL1        0.1378
     19 C         141.0335  143.7222  164.3133 C.3     1  UNL1        0.0437
     20 C         139.6770  143.1461  165.8390 C.3     1  UNL1        0.0437
     21 C         143.3956  138.6274  163.9495 C.3     1  UNL1        0.0913
     22 C         142.7141  138.4289  165.2709 C.3     1  UNL1        0.1087
     23 N         143.3165  139.0025  166.5191 N.3     1  UNL1       -0.1780
     24 H         144.1179  139.5627  166.2288 H       1  UNL1        0.1488
     25 S         142.4883  139.8673  167.4227 S.O2    1  UNL1        0.0603
     26 O         142.9416  139.0649  168.6062 O.2     1  UNL1       -0.1530
     27 O         142.0349  140.6696  166.2392 O.2     1  UNL1       -0.1530
     28 C         141.6601  140.7320  168.3261 C.ar    1  UNL1        0.1221
     29 C         140.4264  140.1755  168.9731 C.ar    1  UNL1        0.0222
     30 C         139.5982  141.0402  169.8766 C.ar    1  UNL1        0.0310
     31 C         140.0036  142.4615  170.1331 C.ar    1  UNL1        0.1402
     32 F         139.1754  143.3262  171.0365 F       1  UNL1       -0.2042
     33 C         141.2371  143.0180  169.4861 C.ar    1  UNL1        0.0310
     34 C         142.0654  142.1532  168.5826 C.ar    1  UNL1        0.0222
@<TRIPOS>BOND
     1    17    18    1
     2    18    19    1
     3    18    20    1
     4    18    16    1
     5    16    12    1
     6    12    13    2
     7    12    14   am
     8    14    11    1
     9    11    10    1
    10    10     1    1
    11     1     2    1
    12     2     3    1
    13     3     4    1
    14     4     5    1
    15     5    21    1
    16    21    22    1
    17    22    23    1
    18    23    25    1
    19    25    26    2
    20    25    27    2
    21    25    28    1
    22    28    29   ar
    23    29    30   ar
    24    30    31   ar
    25    31    32    1
    26    31    33   ar
    27    33    34   ar
    28     5     6    1
    29     6     7    1
    30     7     8    1
    31     7     9    1
    32     8     1    1
    33     9     3    1
    34    34    28   ar
    35    14    15    1
    36    23    24    1
@<TRIPOS>MOLECULE
*****
 34 36 0 0 0
SMALL
GASTEIGER

@<TRIPOS>ATOM
      1 N         139.7821  142.7127  159.6902 N.3     1  UNL1       -0.2670
      2 C         140.8326  141.6425  159.7252 C.3     1  UNL1        0.1035
      3 C         140.6264  140.4164  160.5642 C.3     1  UNL1        0.1470
      4 C         140.4202  139.1902  161.4033 C.3     1  UNL1        0.1035
      5 N         139.1635  139.0343  162.2074 N.3     1  UNL1       -0.2673
      6 C         138.1131  140.1045  162.1723 C.3     1  UNL1        0.1035
      7 C         138.3193  141.3306  161.3333 C.3     1  UNL1        0.1470
      8 C         138.5255  142.5568  160.4942 C.3     1  UNL1        0.1035
      9 O         139.3697  140.2604  161.3683 O.3     1  UNL1       -0.3530
     10 C         139.9883  143.9389  158.8511 C.3     1  UNL1        0.0938
     11 C         140.5620  145.1808  159.4662 C.3     1  UNL1        0.1100
     12 C         140.4105  145.4872  162.0417 C.2     1  UNL1        0.4015
     13 O         138.9793  145.9155  161.9065 O.2     1  UNL1       -0.2264
     14 N         141.2019  145.1198  160.8215 N.am    1  UNL1       -0.2692
     15 H         142.1412  144.8387  160.9102 H       1  UNL1        0.1528
     16 O         141.0503  145.4262  163.3970 O.3     1  UNL1       -0.4419
     17 C         140.6335  143.3670  163.6899 C.3     1  UNL1        0.0437
     18 C         141.8589  144.2260  163.7913 C.3     1  UNL1        0.1378
     19 C         143.0844  145.0850  163.8927 C.3     1  UNL1        0.0437
     20 C         142.6677  143.0258  164.1857 C.3     1  UNL1        0.0437
     21 C         138.9573  137.8081  163.0464 C.3     1  UNL1        0.0913
     22 C         139.3882  137.8013  164.4832 C.3     1  UNL1        0.1087
     23 N         138.4887  138.3730  165.5386 N.3     1  UNL1       -0.1780
     24 H         138.1798  137.5917  166.1170 H       1  UNL1        0.1488
     25 S         139.0048  139.4264  166.4737 S.O2    1  UNL1        0.0603
     26 O         138.1944  138.8341  167.5883 O.2     1  UNL1       -0.1530
     27 O         139.8151  140.0188  165.3590 O.2     1  UNL1       -0.1530
     28 C         139.5208  140.4798  167.4086 C.ar    1  UNL1        0.1221
     29 C         139.3653  140.3085  168.8907 C.ar    1  UNL1        0.0222
     30 C         139.8813  141.3619  169.8256 C.ar    1  UNL1        0.0310
     31 C         140.5528  142.5865  169.2785 C.ar    1  UNL1        0.1402
     32 F         141.0688  143.6398  170.2135 F       1  UNL1       -0.2042
     33 C         140.7083  142.7578  167.7965 C.ar    1  UNL1        0.0310
     34 C         140.1923  141.7044  166.8615 C.ar    1  UNL1        0.0222
@<TRIPOS>BOND
     1    17    18    1
     2    18    19    1
     3    18    20    1
     4    18    16    1
     5    16    12    1
     6    12    13    2
     7    12    14   am
     8    14    11    1
     9    11    10    1
    10    10     1    1
    11     1     2    1
    12     2     3    1
    13     3     4    1
    14     4     5    1
    15     5    21    1
    16    21    22    1
    17    22    23    1
    18    23    25    1
    19    25    26    2
    20    25    27    2
    21    25    28    1
    22    28    29   ar
    23    29    30   ar
    24    30    31   ar
    25    31    32    1
    26    31    33   ar
    27    33    34   ar
    28     5     6    1
    29     6     7    1
    30     7     8    1
    31     7     9    1
    32     8     1    1
    33     9     3    1
    34    34    28   ar
    35    14    15    1
    36    23    24    1
@<TRIPOS>MOLECULE
*****
 34 36 0 0 0
SMALL
GASTEIGER

@<TRIPOS>ATOM
      1 N         139.6603  142.7383  160.3605 N.3     1  UNL1       -0.2670
      2 C         140.7154  141.6796  160.4863 C.3     1  UNL1        0.1035
      3 C         140.4800  140.4867  161.3647 C.3     1  UNL1        0.1470
      4 C         140.2446  139.2938  162.2431 C.3     1  UNL1        0.1035
      5 N         138.9541  139.1595  162.9956 N.3     1  UNL1       -0.2673
      6 C         137.8989  140.2182  162.8698 C.3     1  UNL1        0.1035
      7 C         138.1343  141.4111  161.9914 C.3     1  UNL1        0.1470
      8 C         138.3697  142.6040  161.1130 C.3     1  UNL1        0.1035
      9 O         139.1895  140.3524  162.1172 O.3     1  UNL1       -0.3530
     10 C         139.8957  143.9312  159.4821 C.3     1  UNL1        0.0938
     11 C         140.4634  145.1913  160.0649 C.3     1  UNL1        0.1100
     12 C         142.1841  144.7933  161.9704 C.2     1  UNL1        0.4015
     13 O         141.0763  144.3457  162.8772 O.2     1  UNL1       -0.2264
     14 N         141.8776  145.2161  160.5641 N.am    1  UNL1       -0.2692
     15 H         142.6047  145.5099  159.9689 H       1  UNL1        0.1528
     16 O         143.5983  144.8181  162.4696 O.3     1  UNL1       -0.4419
     17 C         144.0321  144.4145  164.5065 C.3     1  UNL1        0.0437
     18 C         144.1478  143.6442  163.2246 C.3     1  UNL1        0.1378
     19 C         144.2636  142.8739  161.9427 C.3     1  UNL1        0.0437
     20 C         144.6974  142.4703  163.9796 C.3     1  UNL1        0.0437
     21 C         138.7187  137.9666  163.8740 C.3     1  UNL1        0.0913
     22 C         139.2126  137.9689  165.2903 C.3     1  UNL1        0.1087
     23 N         138.9221  139.1381  166.1840 N.3     1  UNL1       -0.1780
     24 H         138.2359  138.8217  166.8691 H       1  UNL1        0.1488
     25 S         140.0336  139.7886  166.9530 S.O2    1  UNL1        0.0603
     26 O         140.8144  139.9557  165.6832 O.2     1  UNL1       -0.1530
     27 O         139.2528  139.6215  168.2228 O.2     1  UNL1       -0.1530
     28 C         141.1451  140.4391  167.7221 C.ar    1  UNL1        0.1221
     29 C         141.8581  141.6280  167.1489 C.ar    1  UNL1        0.0222
     30 C         142.9695  142.2785  167.9180 C.ar    1  UNL1        0.0310
     31 C         143.3681  141.7402  169.2602 C.ar    1  UNL1        0.1402
     32 F         144.4795  142.3907  170.0292 F       1  UNL1       -0.2042
     33 C         142.6551  140.5514  169.8333 C.ar    1  UNL1        0.0310
     34 C         141.5436  139.9009  169.0642 C.ar    1  UNL1        0.0222
@<TRIPOS>BOND
     1    17    18    1
     2    18    19    1
     3    18    20    1
     4    18    16    1
     5    16    12    1
     6    12    13    2
     7    12    14   am
     8    14    11    1
     9    11    10    1
    10    10     1    1
    11     1     2    1
    12     2     3    1
    13     3     4    1
    14     4     5    1
    15     5    21    1
    16    21    22    1
    17    22    23    1
    18    23    25    1
    19    25    26    2
    20    25    27    2
    21    25    28    1
    22    28    29   ar
    23    29    30   ar
    24    30    31   ar
    25    31    32    1
    26    31    33   ar
    27    33    34   ar
    28     5     6    1
    29     6     7    1
    30     7     8    1
    31     7     9    1
    32     8     1    1
    33     9     3    1
    34    34    28   ar
    35    14    15    1
    36    23    24    1
@<TRIPOS>MOLECULE
*****
 34 36 0 0 0
SMALL
GASTEIGER

@<TRIPOS>ATOM
      1 N         144.7867  139.5483  164.0627 N.3     1  UNL1       -0.2670
      2 C         145.3599  140.9282  163.9316 C.3     1  UNL1        0.1035
      3 C         145.1546  141.7086  162.6671 C.3     1  UNL1        0.1470
      4 C         144.9493  142.4890  161.4027 C.3     1  UNL1        0.1035
      5 N         144.1708  141.8895  160.2694 N.3     1  UNL1       -0.2673
      6 C         143.5975  140.5096  160.4005 C.3     1  UNL1        0.1035
      7 C         143.8028  139.7292  161.6649 C.3     1  UNL1        0.1470
      8 C         144.0081  138.9488  162.9294 C.3     1  UNL1        0.1035
      9 O         144.3761  141.1091  161.5338 O.3     1  UNL1       -0.3530
     10 C         144.9920  138.7679  165.3271 C.3     1  UNL1        0.0938
     11 C         143.8096  138.3420  166.1460 C.3     1  UNL1        0.1100
     12 C         141.3277  139.0437  165.8331 C.2     1  UNL1        0.4015
     13 O         141.0855  137.8175  165.0039 O.2     1  UNL1       -0.2264
     14 N         142.6897  139.3060  166.4042 N.am    1  UNL1       -0.2692
     15 H         142.8487  140.1109  166.9484 H       1  UNL1        0.1528
     16 O         140.2078  140.0077  166.0912 O.3     1  UNL1       -0.4419
     17 C         140.0584  140.9710  164.2072 C.3     1  UNL1        0.0437
     18 C         139.1203  140.1839  165.0734 C.3     1  UNL1        0.1378
     19 C         138.1821  139.3968  165.9395 C.3     1  UNL1        0.0437
     20 C         138.0326  140.3601  164.0554 C.3     1  UNL1        0.0437
     21 C         143.9655  142.6700  159.0049 C.3     1  UNL1        0.0913
     22 C         142.6693  143.3866  158.7680 C.3     1  UNL1        0.1087
     23 N         142.3284  144.6058  159.5725 N.3     1  UNL1       -0.1780
     24 H         141.9763  145.3028  158.9162 H       1  UNL1        0.1488
     25 S         141.3268  144.5141  160.6855 S.O2    1  UNL1        0.0603
     26 O         142.4171  144.7567  161.6867 O.2     1  UNL1       -0.1530
     27 O         140.2366  144.2716  159.6842 O.2     1  UNL1       -0.1530
     28 C         140.3253  144.4224  161.7983 C.ar    1  UNL1        0.1221
     29 C         140.6692  144.9446  163.1618 C.ar    1  UNL1        0.0222
     30 C         139.6676  144.8529  164.2746 C.ar    1  UNL1        0.0310
     31 C         138.3221  144.2390  164.0240 C.ar    1  UNL1        0.1402
     32 F         137.3205  144.1473  165.1368 F       1  UNL1       -0.2042
     33 C         137.9782  143.7169  162.6606 C.ar    1  UNL1        0.0310
     34 C         138.9797  143.8086  161.5477 C.ar    1  UNL1        0.0222
@<TRIPOS>BOND
     1    17    18    1
     2    18    19    1
     3    18    20    1
     4    18    16    1
     5    16    12    1
     6    12    13    2
     7    12    14   am
     8    14    11    1
     9    11    10    1
    10    10     1    1
    11     1     2    1
    12     2     3    1
    13     3     4    1
    14     4     5    1
    15     5    21    1
    16    21    22    1
    17    22    23    1
    18    23    25    1
    19    25    26    2
    20    25    27    2
    21    25    28    1
    22    28    29   ar
    23    29    30   ar
    24    30    31   ar
    25    31    32    1
    26    31    33   ar
    27    33    34   ar
    28     5     6    1
    29     6     7    1
    30     7     8    1
    31     7     9    1
    32     8     1    1
    33     9     3    1
    34    34    28   ar
    35    14    15    1
    36    23    24    1
@<TRIPOS>MOLECULE
*****
 34 36 0 0 0
SMALL
GASTEIGER

@<TRIPOS>ATOM
      1 N         139.0263  138.9497  162.6469 N.3     1  UNL1       -0.2670
      2 C         140.2897  139.1295  161.8587 C.3     1  UNL1        0.1035
      3 C         140.5104  140.3876  161.0722 C.3     1  UNL1        0.1470
      4 C         140.7310  141.6456  160.2856 C.3     1  UNL1        0.1035
      5 N         139.6882  142.7238  160.2873 N.3     1  UNL1       -0.2673
      6 C         138.4248  142.5440  161.0756 C.3     1  UNL1        0.1035
      7 C         138.2042  141.2859  161.8621 C.3     1  UNL1        0.1470
      8 C         137.9835  140.0279  162.6486 C.3     1  UNL1        0.1035
      9 O         139.4676  141.4658  161.0739 O.3     1  UNL1       -0.3530
     10 C         138.8057  137.6916  163.4335 C.3     1  UNL1        0.0938
     11 C         138.7248  137.7473  164.9302 C.3     1  UNL1        0.1100
     12 C         138.8410  139.2834  167.0224 C.2     1  UNL1        0.4015
     13 O         137.6820  138.5477  167.6269 O.2     1  UNL1       -0.2264
     14 N         139.3624  138.8832  165.6740 N.am    1  UNL1       -0.2692
     15 H         140.1231  139.3661  165.2773 H       1  UNL1        0.1528
     16 O         139.4786  140.4192  167.7662 O.3     1  UNL1       -0.4419
     17 C         141.4716  139.8015  168.1486 C.3     1  UNL1        0.0437
     18 C         140.2866  140.1479  169.0005 C.3     1  UNL1        0.1378
     19 C         139.1016  140.4942  169.8524 C.3     1  UNL1        0.0437
     20 C         141.0946  139.8765  170.2349 C.3     1  UNL1        0.0437
     21 C         139.9089  143.9819  159.5008 C.3     1  UNL1        0.0913
     22 C         140.2653  145.2557  160.2080 C.3     1  UNL1        0.1087
     23 N         141.6488  145.4484  160.7544 N.3     1  UNL1       -0.1780
     24 H         141.7732  146.4511  160.8942 H       1  UNL1        0.1488
     25 S         142.0488  144.7797  162.0362 S.O2    1  UNL1        0.0603
     26 O         141.0243  145.5867  162.7771 O.2     1  UNL1       -0.1530
     27 O         143.0734  143.9726  161.2953 O.2     1  UNL1       -0.1530
     28 C         142.4489  144.1109  163.3179 C.ar    1  UNL1        0.1221
     29 C         141.4612  143.2599  164.0599 C.ar    1  UNL1        0.0222
     30 C         141.8612  142.5912  165.3415 C.ar    1  UNL1        0.0310
     31 C         143.2489  142.7733  165.8813 C.ar    1  UNL1        0.1402
     32 F         143.6489  142.1046  167.1629 F       1  UNL1       -0.2042
     33 C         144.2365  143.6242  165.1393 C.ar    1  UNL1        0.0310
     34 C         143.8365  144.2930  163.8576 C.ar    1  UNL1        0.0222
@<TRIPOS>BOND
     1    17    18    1
     2    18    19    1
     3    18    20    1
     4    18    16    1
     5    16    12    1
     6    12    13    2
     7    12    14   am
     8    14    11    1
     9    11    10    1
    10    10     1    1
    11     1     2    1
    12     2     3    1
    13     3     4    1
    14     4     5    1
    15     5    21    1
    16    21    22    1
    17    22    23    1
    18    23    25    1
    19    25    26    2
    20    25    27    2
    21    25    28    1
    22    28    29   ar
    23    29    30   ar
    24    30    31   ar
    25    31    32    1
    26    31    33   ar
    27    33    34   ar
    28     5     6    1
    29     6     7    1
    30     7     8    1
    31     7     9    1
    32     8     1    1
    33     9     3    1
    34    34    28   ar
    35    14    15    1
    36    23    24    1
@<TRIPOS>MOLECULE
*****
 34 36 0 0 0
SMALL
GASTEIGER

@<TRIPOS>ATOM
      1 N         140.2733  142.9963  159.8066 N.3     1  UNL1       -0.2670
      2 C         139.0146  142.3137  160.2531 C.3     1  UNL1        0.1035
      3 C         139.0864  140.9807  160.9372 C.3     1  UNL1        0.1470
      4 C         139.1583  139.6477  161.6213 C.3     1  UNL1        0.1035
      5 N         140.4889  138.9974  161.8589 N.3     1  UNL1       -0.2673
      6 C         141.7477  139.6800  161.4123 C.3     1  UNL1        0.1035
      7 C         141.6758  141.0130  160.7282 C.3     1  UNL1        0.1470
      8 C         141.6039  142.3460  160.0442 C.3     1  UNL1        0.1035
      9 O         140.4170  140.3303  161.1748 O.3     1  UNL1       -0.3530
     10 C         140.2014  144.3293  159.1225 C.3     1  UNL1        0.0938
     11 C         140.3726  145.5901  159.9168 C.3     1  UNL1        0.1100
     12 C         139.7993  145.3104  162.4354 C.2     1  UNL1        0.4015
     13 O         138.3465  145.1703  162.0891 O.2     1  UNL1       -0.2264
     14 N         140.8123  145.5203  161.3492 N.am    1  UNL1       -0.2692
     15 H         141.7658  145.6123  161.5765 H       1  UNL1        0.1528
     16 O         140.2390  145.2406  163.8678 O.3     1  UNL1       -0.4419
     17 C         140.9061  143.2275  163.9155 C.3     1  UNL1        0.0437
     18 C         139.9101  144.0336  164.6953 C.3     1  UNL1        0.1378
     19 C         138.9141  144.8397  165.4752 C.3     1  UNL1        0.0437
     20 C         139.5811  142.8265  165.5229 C.3     1  UNL1        0.0437
     21 C         140.5608  137.6644  162.5430 C.3     1  UNL1        0.0913
     22 C         140.5345  137.5876  164.0407 C.3     1  UNL1        0.1087
     23 N         141.8090  137.7177  164.8209 N.3     1  UNL1       -0.1780
     24 H         142.5024  137.1355  164.3513 H       1  UNL1        0.1488
     25 S         142.4356  139.0669  165.0142 S.O2    1  UNL1        0.0603
     26 O         143.6197  138.6333  164.2019 O.2     1  UNL1       -0.1530
     27 O         141.2515  139.5004  165.8265 O.2     1  UNL1       -0.1530
     28 C         143.0622  140.4159  165.2075 C.ar    1  UNL1        0.1221
     29 C         142.7765  141.2043  166.4513 C.ar    1  UNL1        0.0222
     30 C         143.4031  142.5534  166.6446 C.ar    1  UNL1        0.0310
     31 C         144.3154  143.1141  165.5942 C.ar    1  UNL1        0.1402
     32 F         144.9419  144.4632  165.7875 F       1  UNL1       -0.2042
     33 C         144.6010  142.3258  164.3504 C.ar    1  UNL1        0.0310
     34 C         143.9744  140.9767  164.1571 C.ar    1  UNL1        0.0222
@<TRIPOS>BOND
     1    17    18    1
     2    18    19    1
     3    18    20    1
     4    18    16    1
     5    16    12    1
     6    12    13    2
     7    12    14   am
     8    14    11    1
     9    11    10    1
    10    10     1    1
    11     1     2    1
    12     2     3    1
    13     3     4    1
    14     4     5    1
    15     5    21    1
    16    21    22    1
    17    22    23    1
    18    23    25    1
    19    25    26    2
    20    25    27    2
    21    25    28    1
    22    28    29   ar
    23    29    30   ar
    24    30    31   ar
    25    31    32    1
    26    31    33   ar
    27    33    34   ar
    28     5     6    1
    29     6     7    1
    30     7     8    1
    31     7     9    1
    32     8     1    1
    33     9     3    1
    34    34    28   ar
    35    14    15    1
    36    23    24    1
