@<TRIPOS>MOLECULE
*****
 26 29 0 0 0
SMALL
GASTEIGER

@<TRIPOS>ATOM
      1 N         138.1001  140.0527  160.5268 N.pl3   1  UNL1       -0.3380
      2 C         138.4546  139.8968  161.9759 C.2     1  UNL1        0.1482
      3 N         138.8209  141.1008  162.7921 N.2     1  UNL1       -0.2484
      4 C         139.1753  140.9449  164.2413 C.3     1  UNL1        0.1352
      5 C         139.5416  142.1490  165.0575 C.3     1  UNL1        0.1692
      6 O         139.8960  141.9932  166.5067 O.3     1  UNL1       -0.3446
      7 C         139.8841  140.6332  167.1396 C.3     1  UNL1        0.1910
      8 C         139.5178  139.4293  166.3234 C.3     1  UNL1        0.0423
      9 C         139.1634  139.5851  164.8743 C.3     1  UNL1        0.0412
     10 C         138.7971  138.3812  164.0581 C.3     1  UNL1        0.0672
     11 S         138.4427  138.5370  162.6089 S.3     1  UNL1       -0.0807
     12 H         138.1079  140.9452  160.1113 H       1  UNL1        0.1442
     13 H         137.8597  139.2624  159.9911 H       1  UNL1        0.1442
     14 C         139.1872  142.3049  163.6083 C.ar    1  UNL1        0.0278
     15 C         137.9473  143.1490  163.6213 C.ar    1  UNL1        0.0021
     16 C         137.9592  144.5089  162.9883 C.ar    1  UNL1        0.0295
     17 C         139.2110  145.0246  162.3424 C.ar    1  UNL1        0.1424
     18 F         139.2229  146.3845  161.7095 F       1  UNL1       -0.2041
     19 C         140.4509  144.1804  162.3295 C.ar    1  UNL1        0.0590
     20 C         140.4389  142.8206  162.9625 C.ar    1  UNL1        0.1402
     21 F         141.6788  141.9763  162.9496 F       1  UNL1       -0.2044
     22 C         140.2386  140.4774  168.5888 C.ar    1  UNL1        0.2331
     23 N         139.3729  139.8595  169.6467 N.ar    1  UNL1       -0.2083
     24 C         140.1203  139.9123  170.9462 C.ar    1  UNL1        0.1424
     25 C         141.4477  140.5628  170.6915 C.ar    1  UNL1        0.2019
     26 O         141.5208  140.9120  169.2346 O.2     1  UNL1       -0.4327
@<TRIPOS>BOND
     1     1     2    1
     2     2     3    2
     3     3     4    1
     4     4    14    1
     5    14    15   ar
     6    15    16   ar
     7    16    17   ar
     8    17    18    1
     9    17    19   ar
    10    19    20   ar
    11    20    21    1
    12     4     5    1
    13     5     6    1
    14     6     7    1
    15     7    22    1
    16    22    23   ar
    17    23    24   ar
    18    24    25   ar
    19    25    26   ar
    20     7     8    1
    21     9     8    1
    22     9    10    1
    23    10    11    1
    24    11     2    1
    25     9     4    1
    26    20    14   ar
    27    26    22   ar
    28     1    12    1
    29     1    13    1
@<TRIPOS>MOLECULE
*****
 26 29 0 0 0
SMALL
GASTEIGER

@<TRIPOS>ATOM
      1 N         139.5176  145.1313  161.6742 N.pl3   1  UNL1       -0.3380
      2 C         139.7600  144.5362  163.0296 C.2     1  UNL1        0.1482
      3 N         141.0384  143.8030  163.3091 N.2     1  UNL1       -0.2484
      4 C         141.2808  143.2080  164.6645 C.3     1  UNL1        0.1352
      5 C         142.5592  142.4747  164.9439 C.3     1  UNL1        0.1692
      6 O         142.8017  141.8796  166.2993 O.3     1  UNL1       -0.3446
      7 C         141.7657  142.0179  167.3753 C.3     1  UNL1        0.1910
      8 C         140.4873  142.7511  167.0958 C.3     1  UNL1        0.0423
      9 C         140.2449  143.3462  165.7404 C.3     1  UNL1        0.0412
     10 C         138.9666  144.0794  165.4610 C.3     1  UNL1        0.0672
     11 S         138.7241  144.6744  164.1056 S.3     1  UNL1       -0.0807
     12 H         140.1975  145.0406  160.9680 H       1  UNL1        0.1442
     13 H         138.6785  145.6125  161.4908 H       1  UNL1        0.1442
     14 C         142.3168  143.0697  163.5885 C.ar    1  UNL1        0.0278
     15 C         142.2955  141.8800  162.6752 C.ar    1  UNL1        0.0021
     16 C         143.3315  141.7418  161.5992 C.ar    1  UNL1        0.0295
     17 C         144.3888  142.7933  161.4366 C.ar    1  UNL1        0.1424
     18 F         145.4247  142.6551  160.3606 F       1  UNL1       -0.2041
     19 C         144.4100  143.9831  162.3499 C.ar    1  UNL1        0.0590
     20 C         143.3741  144.1213  163.4258 C.ar    1  UNL1        0.1402
     21 F         143.3953  145.3110  164.3391 F       1  UNL1       -0.2044
     22 C         142.0081  141.4228  168.7307 C.ar    1  UNL1        0.2331
     23 N         142.9540  140.3018  169.0451 N.ar    1  UNL1       -0.2083
     24 C         142.8777  140.0305  170.5185 C.ar    1  UNL1        0.1424
     25 C         141.8848  140.9838  171.1146 C.ar    1  UNL1        0.2019
     26 O         141.3474  141.8443  170.0097 O.2     1  UNL1       -0.4327
@<TRIPOS>BOND
     1     1     2    1
     2     2     3    2
     3     3     4    1
     4     4    14    1
     5    14    15   ar
     6    15    16   ar
     7    16    17   ar
     8    17    18    1
     9    17    19   ar
    10    19    20   ar
    11    20    21    1
    12     4     5    1
    13     5     6    1
    14     6     7    1
    15     7    22    1
    16    22    23   ar
    17    23    24   ar
    18    24    25   ar
    19    25    26   ar
    20     7     8    1
    21     9     8    1
    22     9    10    1
    23    10    11    1
    24    11     2    1
    25     9     4    1
    26    20    14   ar
    27    26    22   ar
    28     1    12    1
    29     1    13    1
@<TRIPOS>MOLECULE
*****
 26 29 0 0 0
SMALL
GASTEIGER

@<TRIPOS>ATOM
      1 N         143.7320  138.0271  167.2750 N.pl3   1  UNL1       -0.3380
      2 C         143.2862  139.0474  166.2699 C.2     1  UNL1        0.1482
      3 N         142.4873  140.2372  166.7127 N.2     1  UNL1       -0.2484
      4 C         142.0415  141.2575  165.7075 C.3     1  UNL1        0.1352
      5 C         141.2425  142.4473  166.1504 C.3     1  UNL1        0.1692
      6 O         140.7968  143.4676  165.1453 O.3     1  UNL1       -0.3446
      7 C         141.1500  143.2981  163.6973 C.3     1  UNL1        0.1910
      8 C         141.9489  142.1084  163.2545 C.3     1  UNL1        0.0423
      9 C         142.3947  141.0880  164.2596 C.3     1  UNL1        0.0412
     10 C         143.1936  139.8983  163.8168 C.3     1  UNL1        0.0672
     11 S         143.6394  138.8780  164.8220 S.3     1  UNL1       -0.0807
     12 H         143.5001  138.1384  168.2253 H       1  UNL1        0.1442
     13 H         144.2563  137.2462  166.9844 H       1  UNL1        0.1442
     14 C         141.6883  141.4270  167.1555 C.ar    1  UNL1        0.0278
     15 C         140.4145  140.8426  167.6902 C.ar    1  UNL1        0.0021
     16 C         140.0613  141.0121  169.1382 C.ar    1  UNL1        0.0295
     17 C         140.9819  141.7661  170.0514 C.ar    1  UNL1        0.1424
     18 F         140.6287  141.9356  171.4993 F       1  UNL1       -0.2041
     19 C         142.2558  142.3505  169.5167 C.ar    1  UNL1        0.0590
     20 C         142.6089  142.1809  168.0688 C.ar    1  UNL1        0.1402
     21 F         143.8828  142.7654  167.5341 F       1  UNL1       -0.2044
     22 C         140.7042  144.3184  162.6922 C.ar    1  UNL1        0.2331
     23 N         141.0084  144.3006  161.2234 N.ar    1  UNL1       -0.2083
     24 C         140.3682  145.5069  160.6028 C.ar    1  UNL1        0.1424
     25 C         139.6683  146.2702  161.6880 C.ar    1  UNL1        0.2019
     26 O         139.8760  145.5357  162.9793 O.2     1  UNL1       -0.4327
@<TRIPOS>BOND
     1     1     2    1
     2     2     3    2
     3     3     4    1
     4     4    14    1
     5    14    15   ar
     6    15    16   ar
     7    16    17   ar
     8    17    18    1
     9    17    19   ar
    10    19    20   ar
    11    20    21    1
    12     4     5    1
    13     5     6    1
    14     6     7    1
    15     7    22    1
    16    22    23   ar
    17    23    24   ar
    18    24    25   ar
    19    25    26   ar
    20     7     8    1
    21     9     8    1
    22     9    10    1
    23    10    11    1
    24    11     2    1
    25     9     4    1
    26    20    14   ar
    27    26    22   ar
    28     1    12    1
    29     1    13    1
@<TRIPOS>MOLECULE
*****
 26 29 0 0 0
SMALL
GASTEIGER

@<TRIPOS>ATOM
      1 N         143.7491  138.0104  167.2116 N.pl3   1  UNL1       -0.3380
      2 C         143.2855  139.0281  166.2119 C.2     1  UNL1        0.1482
      3 N         142.5767  140.2661  166.6756 N.2     1  UNL1       -0.2484
      4 C         142.1130  141.2838  165.6759 C.3     1  UNL1        0.1352
      5 C         141.4041  142.5218  166.1397 C.3     1  UNL1        0.1692
      6 O         140.9405  143.5395  165.1400 O.3     1  UNL1       -0.3446
      7 C         141.1857  143.3192  163.6766 C.3     1  UNL1        0.1910
      8 C         141.8945  142.0812  163.2130 C.3     1  UNL1        0.0423
      9 C         142.3582  141.0635  164.2126 C.3     1  UNL1        0.0412
     10 C         143.0670  139.8256  163.7490 C.3     1  UNL1        0.0672
     11 S         143.5306  138.8079  164.7486 S.3     1  UNL1       -0.0807
     12 H         143.5882  138.1550  168.1720 H       1  UNL1        0.1442
     13 H         144.2144  137.1979  166.9073 H       1  UNL1        0.1442
     14 C         141.8678  141.5041  167.1393 C.ar    1  UNL1        0.0278
     15 C         142.9000  142.1997  167.9763 C.ar    1  UNL1        0.0021
     16 C         142.6548  142.4200  169.4397 C.ar    1  UNL1        0.0295
     17 C         141.3774  141.9446  170.0660 C.ar    1  UNL1        0.1424
     18 F         141.1321  142.1649  171.5293 F       1  UNL1       -0.2041
     19 C         140.3452  141.2489  169.2289 C.ar    1  UNL1        0.0590
     20 C         140.5904  141.0286  167.7656 C.ar    1  UNL1        0.1402
     21 F         139.5582  140.3329  166.9285 F       1  UNL1       -0.2044
     22 C         140.7220  144.3369  162.6770 C.ar    1  UNL1        0.2331
     23 N         141.0614  144.3559  161.2159 N.ar    1  UNL1       -0.2083
     24 C         140.3867  145.5451  160.5989 C.ar    1  UNL1        0.1424
     25 C         139.6303  146.2609  161.6784 C.ar    1  UNL1        0.2019
     26 O         139.8376  145.5142  162.9628 O.2     1  UNL1       -0.4327
@<TRIPOS>BOND
     1     1     2    1
     2     2     3    2
     3     3     4    1
     4     4    14    1
     5    14    15   ar
     6    15    16   ar
     7    16    17   ar
     8    17    18    1
     9    17    19   ar
    10    19    20   ar
    11    20    21    1
    12     4     5    1
    13     5     6    1
    14     6     7    1
    15     7    22    1
    16    22    23   ar
    17    23    24   ar
    18    24    25   ar
    19    25    26   ar
    20     7     8    1
    21     9     8    1
    22     9    10    1
    23    10    11    1
    24    11     2    1
    25     9     4    1
    26    20    14   ar
    27    26    22   ar
    28     1    12    1
    29     1    13    1
@<TRIPOS>MOLECULE
*****
 26 29 0 0 0
SMALL
GASTEIGER

@<TRIPOS>ATOM
      1 N         138.2570  140.2389  160.7264 N.pl3   1  UNL1       -0.3380
      2 C         138.5972  140.1027  162.1809 C.2     1  UNL1        0.1482
      3 N         139.0249  141.3064  162.9671 N.2     1  UNL1       -0.2484
      4 C         139.3651  141.1701  164.4216 C.3     1  UNL1        0.1352
      5 C         139.7928  142.3740  165.2078 C.3     1  UNL1        0.1692
      6 O         140.1330  142.2377  166.6623 O.3     1  UNL1       -0.3446
      7 C         140.0455  140.8977  167.3307 C.3     1  UNL1        0.1910
      8 C         139.6178  139.6939  166.5445 C.3     1  UNL1        0.0423
      9 C         139.2776  139.8302  165.0900 C.3     1  UNL1        0.0412
     10 C         138.8499  138.6265  164.3038 C.3     1  UNL1        0.0672
     11 S         138.5097  138.7627  162.8493 S.3     1  UNL1       -0.0807
     12 H         138.3144  141.1184  160.2877 H       1  UNL1        0.1442
     13 H         137.9763  139.4488  160.2104 H       1  UNL1        0.1442
     14 C         139.4526  142.5102  163.7532 C.ar    1  UNL1        0.0278
     15 C         140.7350  142.9439  163.1073 C.ar    1  UNL1        0.0021
     16 C         140.8225  144.2839  162.4390 C.ar    1  UNL1        0.0295
     17 C         139.6275  145.1903  162.4165 C.ar    1  UNL1        0.1424
     18 F         139.7149  146.5303  161.7482 F       1  UNL1       -0.2041
     19 C         138.3450  144.7566  163.0625 C.ar    1  UNL1        0.0590
     20 C         138.2575  143.4166  163.7308 C.ar    1  UNL1        0.1402
     21 F         136.9751  142.9828  164.3768 F       1  UNL1       -0.2044
     22 C         140.3857  140.7614  168.7852 C.ar    1  UNL1        0.2331
     23 N         139.6810  139.8841  169.7771 N.ar    1  UNL1       -0.2083
     24 C         140.3501  140.0590  171.1082 C.ar    1  UNL1        0.1424
     25 C         141.4683  141.0445  170.9390 C.ar    1  UNL1        0.2019
     26 O         141.4903  141.4785  169.5033 O.2     1  UNL1       -0.4327
@<TRIPOS>BOND
     1     1     2    1
     2     2     3    2
     3     3     4    1
     4     4    14    1
     5    14    15   ar
     6    15    16   ar
     7    16    17   ar
     8    17    18    1
     9    17    19   ar
    10    19    20   ar
    11    20    21    1
    12     4     5    1
    13     5     6    1
    14     6     7    1
    15     7    22    1
    16    22    23   ar
    17    23    24   ar
    18    24    25   ar
    19    25    26   ar
    20     7     8    1
    21     9     8    1
    22     9    10    1
    23    10    11    1
    24    11     2    1
    25     9     4    1
    26    20    14   ar
    27    26    22   ar
    28     1    12    1
    29     1    13    1
@<TRIPOS>MOLECULE
*****
 26 29 0 0 0
SMALL
GASTEIGER

@<TRIPOS>ATOM
      1 N         139.2635  144.1151  160.7296 N.pl3   1  UNL1       -0.3380
      2 C         139.4583  143.8147  162.1862 C.2     1  UNL1        0.1482
      3 N         139.5007  142.3919  162.6594 N.2     1  UNL1       -0.2484
      4 C         139.6956  142.0914  164.1160 C.3     1  UNL1        0.1352
      5 C         139.7380  140.6686  164.5892 C.3     1  UNL1        0.1692
      6 O         139.9329  140.3681  166.0458 O.3     1  UNL1       -0.3446
      7 C         140.0854  141.4905  167.0293 C.3     1  UNL1        0.1910
      8 C         140.0430  142.9133  166.5561 C.3     1  UNL1        0.0423
      9 C         139.8481  143.2137  165.0995 C.3     1  UNL1        0.0412
     10 C         139.8058  144.6365  164.6263 C.3     1  UNL1        0.0672
     11 S         139.6109  144.9369  163.1696 S.3     1  UNL1       -0.0807
     12 H         139.1633  143.3785  160.0841 H       1  UNL1        0.1442
     13 H         139.2356  145.0489  160.4190 H       1  UNL1        0.1442
     14 C         139.5431  140.9691  163.1326 C.ar    1  UNL1        0.0278
     15 C         140.7584  140.3366  162.5220 C.ar    1  UNL1        0.0021
     16 C         140.6059  139.2142  161.5385 C.ar    1  UNL1        0.0295
     17 C         139.2380  138.7244  161.1657 C.ar    1  UNL1        0.1424
     18 F         139.0854  137.6021  160.1824 F       1  UNL1       -0.2041
     19 C         138.0226  139.3570  161.7764 C.ar    1  UNL1        0.0590
     20 C         138.1752  140.4793  162.7598 C.ar    1  UNL1        0.1402
     21 F         136.9598  141.1118  163.3704 F       1  UNL1       -0.2044
     22 C         140.2803  141.1901  168.4859 C.ar    1  UNL1        0.2331
     23 N         139.9317  139.9042  169.1752 N.ar    1  UNL1       -0.2083
     24 C         140.2940  140.0422  170.6243 C.ar    1  UNL1        0.1424
     25 C         140.8664  141.4132  170.8305 C.ar    1  UNL1        0.2019
     26 O         140.8580  142.1226  169.5089 O.2     1  UNL1       -0.4327
@<TRIPOS>BOND
     1     1     2    1
     2     2     3    2
     3     3     4    1
     4     4    14    1
     5    14    15   ar
     6    15    16   ar
     7    16    17   ar
     8    17    18    1
     9    17    19   ar
    10    19    20   ar
    11    20    21    1
    12     4     5    1
    13     5     6    1
    14     6     7    1
    15     7    22    1
    16    22    23   ar
    17    23    24   ar
    18    24    25   ar
    19    25    26   ar
    20     7     8    1
    21     9     8    1
    22     9    10    1
    23    10    11    1
    24    11     2    1
    25     9     4    1
    26    20    14   ar
    27    26    22   ar
    28     1    12    1
    29     1    13    1
@<TRIPOS>MOLECULE
*****
 26 29 0 0 0
SMALL
GASTEIGER

@<TRIPOS>ATOM
      1 N         143.4463  137.9541  161.3139 N.pl3   1  UNL1       -0.3380
      2 C         143.3163  138.7659  162.5685 C.2     1  UNL1        0.1482
      3 N         141.9572  139.1017  163.1071 N.2     1  UNL1       -0.2484
      4 C         141.8272  139.9136  164.3617 C.3     1  UNL1        0.1352
      5 C         140.4681  140.2494  164.9003 C.3     1  UNL1        0.1692
      6 O         140.3381  141.0612  166.1549 O.3     1  UNL1       -0.3446
      7 C         141.5673  141.5372  166.8709 C.3     1  UNL1        0.1910
      8 C         142.9263  141.2014  166.3323 C.3     1  UNL1        0.0423
      9 C         143.0563  140.3896  165.0777 C.3     1  UNL1        0.0412
     10 C         144.4154  140.0538  164.5391 C.3     1  UNL1        0.0672
     11 S         144.5454  139.2419  163.2845 S.3     1  UNL1       -0.0807
     12 H         142.6396  137.6417  160.8440 H       1  UNL1        0.1442
     13 H         144.3383  137.7337  160.9604 H       1  UNL1        0.1442
     14 C         140.5981  139.4376  163.6457 C.ar    1  UNL1        0.0278
     15 C         139.9422  140.3124  162.6189 C.ar    1  UNL1        0.0021
     16 C         138.7130  139.8364  161.9029 C.ar    1  UNL1        0.0295
     17 C         138.1398  138.4855  162.2137 C.ar    1  UNL1        0.1424
     18 F         136.9107  138.0095  161.4978 F       1  UNL1       -0.2041
     19 C         138.7958  137.6107  163.2406 C.ar    1  UNL1        0.0590
     20 C         140.0249  138.0867  163.9566 C.ar    1  UNL1        0.1402
     21 F         140.6809  137.2119  164.9834 F       1  UNL1       -0.2044
     22 C         141.4373  142.3491  168.1255 C.ar    1  UNL1        0.2331
     23 N         142.4767  142.4866  169.1983 N.ar    1  UNL1       -0.2083
     24 C         141.9268  143.3885  170.2635 C.ar    1  UNL1        0.1424
     25 C         140.5477  143.8083  169.8489 C.ar    1  UNL1        0.2019
     26 O         140.2452  143.1659  168.5277 O.2     1  UNL1       -0.4327
@<TRIPOS>BOND
     1     1     2    1
     2     2     3    2
     3     3     4    1
     4     4    14    1
     5    14    15   ar
     6    15    16   ar
     7    16    17   ar
     8    17    18    1
     9    17    19   ar
    10    19    20   ar
    11    20    21    1
    12     4     5    1
    13     5     6    1
    14     6     7    1
    15     7    22    1
    16    22    23   ar
    17    23    24   ar
    18    24    25   ar
    19    25    26   ar
    20     7     8    1
    21     9     8    1
    22     9    10    1
    23    10    11    1
    24    11     2    1
    25     9     4    1
    26    20    14   ar
    27    26    22   ar
    28     1    12    1
    29     1    13    1
@<TRIPOS>MOLECULE
*****
 26 29 0 0 0
SMALL
GASTEIGER

@<TRIPOS>ATOM
      1 N         140.3416  142.8508  166.8957 N.pl3   1  UNL1       -0.3380
      2 C         140.3134  143.4127  165.5052 C.2     1  UNL1        0.1482
      3 N         141.3512  142.9948  164.5061 N.2     1  UNL1       -0.2484
      4 C         141.3230  143.5567  163.1157 C.3     1  UNL1        0.1352
      5 C         142.3609  143.1387  162.1166 C.3     1  UNL1        0.1692
      6 O         142.3327  143.7007  160.7261 O.3     1  UNL1       -0.3446
      7 C         141.2665  144.6806  160.3347 C.3     1  UNL1        0.1910
      8 C         140.2287  145.0986  161.3338 C.3     1  UNL1        0.0423
      9 C         140.2569  144.5366  162.7243 C.3     1  UNL1        0.0412
     10 C         139.2191  144.9546  163.7233 C.3     1  UNL1        0.0672
     11 S         139.2473  144.3926  165.1138 S.3     1  UNL1       -0.0807
     12 H         141.0414  142.2076  167.1526 H       1  UNL1        0.1442
     13 H         139.6605  143.1251  167.5514 H       1  UNL1        0.1442
     14 C         142.3891  142.5768  163.5071 C.ar    1  UNL1        0.0278
     15 C         142.1622  141.1062  163.3178 C.ar    1  UNL1        0.0021
     16 C         143.2283  140.1263  163.7091 C.ar    1  UNL1        0.0295
     17 C         144.5214  140.6170  164.2898 C.ar    1  UNL1        0.1424
     18 F         145.5875  139.6371  164.6812 F       1  UNL1       -0.2041
     19 C         144.7483  142.0876  164.4791 C.ar    1  UNL1        0.0590
     20 C         143.6822  143.0675  164.0877 C.ar    1  UNL1        0.1402
     21 F         143.9091  144.5381  164.2770 F       1  UNL1       -0.2044
     22 C         141.2383  145.2426  158.9443 C.ar    1  UNL1        0.2331
     23 N         142.3947  145.2933  157.9901 N.ar    1  UNL1       -0.2083
     24 C         141.9197  145.9346  156.7200 C.ar    1  UNL1        0.1424
     25 C         140.4699  146.2802  156.8891 C.ar    1  UNL1        0.2019
     26 O         140.0488  145.8525  158.2638 O.2     1  UNL1       -0.4327
@<TRIPOS>BOND
     1     1     2    1
     2     2     3    2
     3     3     4    1
     4     4    14    1
     5    14    15   ar
     6    15    16   ar
     7    16    17   ar
     8    17    18    1
     9    17    19   ar
    10    19    20   ar
    11    20    21    1
    12     4     5    1
    13     5     6    1
    14     6     7    1
    15     7    22    1
    16    22    23   ar
    17    23    24   ar
    18    24    25   ar
    19    25    26   ar
    20     7     8    1
    21     9     8    1
    22     9    10    1
    23    10    11    1
    24    11     2    1
    25     9     4    1
    26    20    14   ar
    27    26    22   ar
    28     1    12    1
    29     1    13    1
@<TRIPOS>MOLECULE
*****
 26 29 0 0 0
SMALL
GASTEIGER

@<TRIPOS>ATOM
      1 N         138.4251  137.7774  161.6495 N.pl3   1  UNL1       -0.3380
      2 C         138.8220  138.4433  162.9336 C.2     1  UNL1        0.1482
      3 N         139.1499  139.9069  162.9494 N.2     1  UNL1       -0.2484
      4 C         139.5467  140.5728  164.2336 C.3     1  UNL1        0.1352
      5 C         139.8747  142.0365  164.2493 C.3     1  UNL1        0.1692
      6 O         140.2715  142.7024  165.5335 O.3     1  UNL1       -0.3446
      7 C         140.3404  141.9046  166.8020 C.3     1  UNL1        0.1910
      8 C         140.0124  140.4410  166.7862 C.3     1  UNL1        0.0423
      9 C         139.6156  139.7751  165.5020 C.3     1  UNL1        0.0412
     10 C         139.2877  138.3115  165.4862 C.3     1  UNL1        0.0672
     11 S         138.8909  137.6456  164.2020 S.3     1  UNL1       -0.0807
     12 H         138.3799  138.3010  160.8170 H       1  UNL1        0.1442
     13 H         138.2099  136.8168  161.6391 H       1  UNL1        0.1442
     14 C         139.4779  141.3706  162.9652 C.ar    1  UNL1        0.0278
     15 C         140.7005  141.5274  162.1104 C.ar    1  UNL1        0.0021
     16 C         140.6316  142.3252  160.8420 C.ar    1  UNL1        0.0295
     17 C         139.3401  142.9661  160.4283 C.ar    1  UNL1        0.1424
     18 F         139.2712  143.7639  159.1600 F       1  UNL1       -0.2041
     19 C         138.1174  142.8093  161.2831 C.ar    1  UNL1        0.0590
     20 C         138.1863  142.0116  162.5515 C.ar    1  UNL1        0.1402
     21 F         136.9637  141.8547  163.4063 F       1  UNL1       -0.2044
     22 C         140.7372  142.5705  168.0861 C.ar    1  UNL1        0.2331
     23 N         141.9622  142.2646  168.8961 N.ar    1  UNL1       -0.2083
     24 C         141.9608  143.1643  170.0964 C.ar    1  UNL1        0.1424
     25 C         140.7350  144.0261  170.0283 C.ar    1  UNL1        0.2019
     26 O         139.9788  143.6591  168.7859 O.2     1  UNL1       -0.4327
@<TRIPOS>BOND
     1     1     2    1
     2     2     3    2
     3     3     4    1
     4     4    14    1
     5    14    15   ar
     6    15    16   ar
     7    16    17   ar
     8    17    18    1
     9    17    19   ar
    10    19    20   ar
    11    20    21    1
    12     4     5    1
    13     5     6    1
    14     6     7    1
    15     7    22    1
    16    22    23   ar
    17    23    24   ar
    18    24    25   ar
    19    25    26   ar
    20     7     8    1
    21     9     8    1
    22     9    10    1
    23    10    11    1
    24    11     2    1
    25     9     4    1
    26    20    14   ar
    27    26    22   ar
    28     1    12    1
    29     1    13    1
