@<TRIPOS>MOLECULE
*****
 23 24 0 0 0
SMALL
GASTEIGER

@<TRIPOS>ATOM
      1 O         139.0721  139.6031  168.9630 O.2     1  UNL1       -0.2751
      2 C         139.3499  139.8385  167.5079 C.2     1  UNL1        0.2224
      3 N         140.3804  140.8472  167.0946 N.am    1  UNL1       -0.3060
      4 H         140.5627  141.0017  166.1396 H       1  UNL1        0.1494
      5 C         141.1330  141.6204  168.1365 C.3     1  UNL1        0.0717
      6 C         142.5534  141.2607  168.4572 C.3     1  UNL1        0.0220
      7 C         143.3061  142.0340  169.4992 C.3     1  UNL1        0.0309
      8 C         142.6382  143.1670  170.2204 C.3     1  UNL1        0.1106
      9 O         143.3908  143.9403  171.2623 O.3     1  UNL1       -0.3845
     10 C         141.2177  143.5268  169.8997 C.3     1  UNL1        0.0309
     11 C         140.4651  142.7535  168.8578 C.3     1  UNL1        0.0220
     12 H         142.8180  144.6325  171.6279 H       1  UNL1        0.2103
     13 C         138.5972  139.0652  166.4660 C.3     1  UNL1        0.0850
     14 C         139.1400  138.9609  165.0715 C.3     1  UNL1        0.0096
     15 C         139.5849  137.6318  164.5374 C.3     1  UNL1        0.0008
     16 C         141.0314  137.2411  164.6082 C.3     1  UNL1        0.0047
     17 C         142.0201  138.1448  165.2833 C.3     1  UNL1        0.0264
     18 C         142.9638  138.9716  164.4611 C.ar    1  UNL1       -0.0222
     19 C         143.1320  138.6856  162.9983 C.ar    1  UNL1       -0.0043
     20 C         144.0756  139.5124  162.1762 C.ar    1  UNL1       -0.0003
     21 C         144.8511  140.6251  162.8169 C.ar    1  UNL1       -0.0000
     22 C         144.6830  140.9110  164.2797 C.ar    1  UNL1       -0.0003
     23 C         143.7393  140.0843  165.1018 C.ar    1  UNL1       -0.0043
@<TRIPOS>BOND
     1     1     2    2
     2     2    13    1
     3    13    14    1
     4    14    15    1
     5    15    16    1
     6    16    17    1
     7    17    18    1
     8    18    19   ar
     9    19    20   ar
    10    20    21   ar
    11    21    22   ar
    12    22    23   ar
    13     2     3   am
    14     5     3    1
    15     5     6    1
    16     6     7    1
    17     7     8    1
    18     8     9    1
    19     8    10    1
    20    10    11    1
    21    23    18   ar
    22    11     5    1
    23     3     4    1
    24     9    12    1
@<TRIPOS>MOLECULE
*****
 23 24 0 0 0
SMALL
GASTEIGER

@<TRIPOS>ATOM
      1 O         142.9815  138.9750  168.5984 O.2     1  UNL1       -0.2751
      2 C         142.5777  139.2880  167.1881 C.2     1  UNL1        0.2224
      3 N         141.5387  140.3362  166.9206 N.am    1  UNL1       -0.3060
      4 H         141.2736  140.5416  165.9949 H       1  UNL1        0.1494
      5 C         140.9035  141.0714  168.0633 C.3     1  UNL1        0.0717
      6 C         139.8863  140.3837  168.9249 C.3     1  UNL1        0.0220
      7 C         139.2511  141.1190  170.0677 C.3     1  UNL1        0.0309
      8 C         139.6332  142.5419  170.3489 C.3     1  UNL1        0.1106
      9 O         138.9980  143.2773  171.4917 O.3     1  UNL1       -0.3845
     10 C         140.6504  143.2297  169.4873 C.3     1  UNL1        0.0309
     11 C         141.2855  142.4945  168.3446 C.3     1  UNL1        0.0220
     12 H         139.3536  144.1787  171.5338 H       1  UNL1        0.2103
     13 C         143.2129  138.5527  166.0453 C.3     1  UNL1        0.0850
     14 C         142.8438  138.8984  164.6332 C.3     1  UNL1        0.0096
     15 C         141.9839  137.9656  163.8329 C.3     1  UNL1        0.0008
     16 C         141.0174  137.0535  164.5288 C.3     1  UNL1        0.0047
     17 C         139.7038  137.5863  165.0193 C.3     1  UNL1        0.0264
     18 C         138.9986  138.6654  164.2523 C.ar    1  UNL1       -0.0222
     19 C         138.7355  139.9941  164.8968 C.ar    1  UNL1       -0.0043
     20 C         138.0304  141.0731  164.1298 C.ar    1  UNL1       -0.0003
     21 C         137.5884  140.8236  162.7183 C.ar    1  UNL1       -0.0000
     22 C         137.8515  139.4950  162.0737 C.ar    1  UNL1       -0.0003
     23 C         138.5566  138.4159  162.8407 C.ar    1  UNL1       -0.0043
@<TRIPOS>BOND
     1     1     2    2
     2     2    13    1
     3    13    14    1
     4    14    15    1
     5    15    16    1
     6    16    17    1
     7    17    18    1
     8    18    19   ar
     9    19    20   ar
    10    20    21   ar
    11    21    22   ar
    12    22    23   ar
    13     2     3   am
    14     5     3    1
    15     5     6    1
    16     6     7    1
    17     7     8    1
    18     8     9    1
    19     8    10    1
    20    10    11    1
    21    23    18   ar
    22    11     5    1
    23     3     4    1
    24     9    12    1
@<TRIPOS>MOLECULE
*****
 23 24 0 0 0
SMALL
GASTEIGER

@<TRIPOS>ATOM
      1 O         139.6885  140.9459  166.3231 O.2     1  UNL1       -0.2751
      2 C         139.1428  139.8427  167.1806 C.2     1  UNL1        0.2224
      3 N         139.5704  139.7251  168.6135 N.am    1  UNL1       -0.3060
      4 H         139.2123  139.0011  169.1762 H       1  UNL1        0.1494
      5 C         140.5437  140.7108  169.1889 C.3     1  UNL1        0.0717
      6 C         141.9979  140.3571  169.2902 C.3     1  UNL1        0.0220
      7 C         142.9712  141.3428  169.8657 C.3     1  UNL1        0.0309
      8 C         142.4903  142.6821  170.3399 C.3     1  UNL1        0.1106
      9 O         143.4636  143.6678  170.9154 O.3     1  UNL1       -0.3845
     10 C         141.0361  143.0358  170.2386 C.3     1  UNL1        0.0309
     11 C         140.0628  142.0502  169.6632 C.3     1  UNL1        0.0220
     12 H         142.9923  144.4762  171.1707 H       1  UNL1        0.2103
     13 C         138.1695  138.8571  166.6050 C.3     1  UNL1        0.0850
     14 C         138.6055  137.9197  165.5182 C.3     1  UNL1        0.0096
     15 C         138.8149  138.4330  164.1245 C.3     1  UNL1        0.0008
     16 C         139.6305  137.6391  163.1474 C.3     1  UNL1        0.0047
     17 C         140.9323  137.0304  163.5773 C.3     1  UNL1        0.0264
     18 C         142.0894  137.9132  163.9404 C.ar    1  UNL1       -0.0222
     19 C         142.3027  138.3207  165.3681 C.ar    1  UNL1       -0.0043
     20 C         143.4598  139.2035  165.7311 C.ar    1  UNL1       -0.0003
     21 C         144.4036  139.6787  164.6665 C.ar    1  UNL1       -0.0000
     22 C         144.1903  139.2712  163.2388 C.ar    1  UNL1       -0.0003
     23 C         143.0332  138.3884  162.8757 C.ar    1  UNL1       -0.0043
@<TRIPOS>BOND
     1     1     2    2
     2     2    13    1
     3    13    14    1
     4    14    15    1
     5    15    16    1
     6    16    17    1
     7    17    18    1
     8    18    19   ar
     9    19    20   ar
    10    20    21   ar
    11    21    22   ar
    12    22    23   ar
    13     2     3   am
    14     5     3    1
    15     5     6    1
    16     6     7    1
    17     7     8    1
    18     8     9    1
    19     8    10    1
    20    10    11    1
    21    23    18   ar
    22    11     5    1
    23     3     4    1
    24     9    12    1
@<TRIPOS>MOLECULE
*****
 23 24 0 0 0
SMALL
GASTEIGER

@<TRIPOS>ATOM
      1 O         139.8291  141.6597  166.2963 O.2     1  UNL1       -0.2751
      2 C         139.6627  140.2817  166.8650 C.2     1  UNL1        0.2224
      3 N         140.3006  139.9293  168.1760 N.am    1  UNL1       -0.3060
      4 H         140.1914  139.0249  168.5493 H       1  UNL1        0.1494
      5 C         141.1050  140.9549  168.9183 C.3     1  UNL1        0.0717
      6 C         140.4278  142.1569  169.5070 C.3     1  UNL1        0.0220
      7 C         141.2323  143.1826  170.2493 C.3     1  UNL1        0.0309
      8 C         142.7139  143.0062  170.4028 C.3     1  UNL1        0.1106
      9 O         143.5184  144.0318  171.1452 O.3     1  UNL1       -0.3845
     10 C         143.3911  141.8042  169.8142 C.3     1  UNL1        0.0309
     11 C         142.5867  140.7786  169.0719 C.3     1  UNL1        0.0220
     12 H         144.4517  143.7677  171.1520 H       1  UNL1        0.2103
     13 C         138.8582  139.2561  166.1226 C.3     1  UNL1        0.0850
     14 C         139.3761  138.6838  164.8365 C.3     1  UNL1        0.0096
     15 C         140.4546  137.6416  164.8598 C.3     1  UNL1        0.0008
     16 C         141.8495  137.9961  164.4367 C.3     1  UNL1        0.0047
     17 C         142.8037  138.5961  165.4263 C.3     1  UNL1        0.0264
     18 C         143.5694  139.8366  165.0725 C.ar    1  UNL1       -0.0222
     19 C         143.1239  141.1686  165.5988 C.ar    1  UNL1       -0.0043
     20 C         143.8896  142.4090  165.2451 C.ar    1  UNL1       -0.0003
     21 C         145.1008  142.3173  164.3651 C.ar    1  UNL1       -0.0000
     22 C         145.5464  140.9852  163.8388 C.ar    1  UNL1       -0.0003
     23 C         144.7807  139.7449  164.1925 C.ar    1  UNL1       -0.0043
@<TRIPOS>BOND
     1     1     2    2
     2     2    13    1
     3    13    14    1
     4    14    15    1
     5    15    16    1
     6    16    17    1
     7    17    18    1
     8    18    19   ar
     9    19    20   ar
    10    20    21   ar
    11    21    22   ar
    12    22    23   ar
    13     2     3   am
    14     5     3    1
    15     5     6    1
    16     6     7    1
    17     7     8    1
    18     8     9    1
    19     8    10    1
    20    10    11    1
    21    23    18   ar
    22    11     5    1
    23     3     4    1
    24     9    12    1
@<TRIPOS>MOLECULE
*****
 23 24 0 0 0
SMALL
GASTEIGER

@<TRIPOS>ATOM
      1 O         142.8387  142.0819  165.4797 O.2     1  UNL1       -0.2751
      2 C         141.4724  142.6330  165.7618 C.2     1  UNL1        0.2224
      3 N         140.8547  142.4497  167.1164 N.am    1  UNL1       -0.3060
      4 H         139.9580  142.8115  167.3015 H       1  UNL1        0.1494
      5 C         141.6034  141.7153  168.1888 C.3     1  UNL1        0.0717
      6 C         141.2147  140.3117  168.5479 C.3     1  UNL1        0.0220
      7 C         141.9634  139.5773  169.6204 C.3     1  UNL1        0.0309
      8 C         143.1006  140.2464  170.3337 C.3     1  UNL1        0.1106
      9 O         143.8493  139.5120  171.4062 O.3     1  UNL1       -0.3845
     10 C         143.4893  141.6500  169.9746 C.3     1  UNL1        0.0309
     11 C         142.7407  142.3844  168.9022 C.3     1  UNL1        0.0220
     12 H         144.5478  140.0833  171.7621 H       1  UNL1        0.2103
     13 C         140.7238  143.3675  164.6893 C.3     1  UNL1        0.0850
     14 C         139.4726  144.1214  165.0299 C.3     1  UNL1        0.0096
     15 C         138.2845  144.0543  164.1168 C.3     1  UNL1        0.0008
     16 C         137.3612  142.8733  164.1729 C.3     1  UNL1        0.0047
     17 C         137.6118  141.6830  163.2953 C.3     1  UNL1        0.0264
     18 C         138.1037  140.3991  163.8951 C.ar    1  UNL1       -0.0222
     19 C         138.3084  140.2938  165.3773 C.ar    1  UNL1       -0.0043
     20 C         138.8003  139.0100  165.9771 C.ar    1  UNL1       -0.0003
     21 C         139.0874  137.8314  165.0947 C.ar    1  UNL1       -0.0000
     22 C         138.8826  137.9368  163.6125 C.ar    1  UNL1       -0.0003
     23 C         138.3908  139.2206  163.0127 C.ar    1  UNL1       -0.0043
@<TRIPOS>BOND
     1     1     2    2
     2     2    13    1
     3    13    14    1
     4    14    15    1
     5    15    16    1
     6    16    17    1
     7    17    18    1
     8    18    19   ar
     9    19    20   ar
    10    20    21   ar
    11    21    22   ar
    12    22    23   ar
    13     2     3   am
    14     5     3    1
    15     5     6    1
    16     6     7    1
    17     7     8    1
    18     8     9    1
    19     8    10    1
    20    10    11    1
    21    23    18   ar
    22    11     5    1
    23     3     4    1
    24     9    12    1
@<TRIPOS>MOLECULE
*****
 23 24 0 0 0
SMALL
GASTEIGER

@<TRIPOS>ATOM
      1 O         143.1162  139.0904  167.9385 O.2     1  UNL1       -0.2751
      2 C         141.8811  139.9295  167.7960 C.2     1  UNL1        0.2224
      3 N         141.8043  140.9752  166.7234 N.am    1  UNL1       -0.3060
      4 H         140.9937  141.5259  166.6299 H       1  UNL1        0.1494
      5 C         142.9628  141.1817  165.7931 C.3     1  UNL1        0.0717
      6 C         143.4243  140.0608  164.9097 C.3     1  UNL1        0.0220
      7 C         144.5828  140.2674  163.9794 C.3     1  UNL1        0.0309
      8 C         145.2797  141.5948  163.9327 C.3     1  UNL1        0.1106
      9 O         146.4382  141.8014  163.0024 O.3     1  UNL1       -0.3845
     10 C         144.8181  142.7157  164.8161 C.3     1  UNL1        0.0309
     11 C         143.6597  142.5092  165.7463 C.3     1  UNL1        0.0220
     12 H         146.7707  142.7077  163.0964 H       1  UNL1        0.2103
     13 C         140.7226  139.7230  168.7263 C.3     1  UNL1        0.0850
     14 C         139.3682  140.2589  168.3681 C.3     1  UNL1        0.0096
     15 C         138.2073  139.3215  168.2147 C.3     1  UNL1        0.0008
     16 C         137.9312  138.6805  166.8869 C.3     1  UNL1        0.0047
     17 C         138.2560  139.4126  165.6187 C.3     1  UNL1        0.0264
     18 C         139.1486  138.7778  164.5938 C.ar    1  UNL1       -0.0222
     19 C         140.2821  137.8969  165.0288 C.ar    1  UNL1       -0.0043
     20 C         141.1746  137.2622  164.0039 C.ar    1  UNL1       -0.0003
     21 C         140.9337  137.5084  162.5440 C.ar    1  UNL1       -0.0000
     22 C         139.8003  138.3893  162.1090 C.ar    1  UNL1       -0.0003
     23 C         138.9078  139.0240  163.1338 C.ar    1  UNL1       -0.0043
@<TRIPOS>BOND
     1     1     2    2
     2     2    13    1
     3    13    14    1
     4    14    15    1
     5    15    16    1
     6    16    17    1
     7    17    18    1
     8    18    19   ar
     9    19    20   ar
    10    20    21   ar
    11    21    22   ar
    12    22    23   ar
    13     2     3   am
    14     5     3    1
    15     5     6    1
    16     6     7    1
    17     7     8    1
    18     8     9    1
    19     8    10    1
    20    10    11    1
    21    23    18   ar
    22    11     5    1
    23     3     4    1
    24     9    12    1
@<TRIPOS>MOLECULE
*****
 23 24 0 0 0
SMALL
GASTEIGER

@<TRIPOS>ATOM
      1 O         137.6597  139.2645  166.2701 O.2     1  UNL1       -0.2751
      2 C         138.9984  138.7753  165.8027 C.2     1  UNL1        0.2224
      3 N         140.2537  139.3742  166.3643 N.am    1  UNL1       -0.3060
      4 H         141.1324  139.0531  166.0575 H       1  UNL1        0.1494
      5 C         140.1703  140.4623  167.3934 C.3     1  UNL1        0.0717
      6 C         140.5586  141.8659  167.0339 C.3     1  UNL1        0.0220
      7 C         140.4752  142.9540  168.0631 C.3     1  UNL1        0.0309
      8 C         140.0035  142.6385  169.4516 C.3     1  UNL1        0.1106
      9 O         139.9201  143.7267  170.4807 O.3     1  UNL1       -0.3845
     10 C         139.6153  141.2349  169.8110 C.3     1  UNL1        0.0309
     11 C         139.6986  140.1468  168.7819 C.3     1  UNL1        0.0220
     12 H         139.5994  143.3561  171.3178 H       1  UNL1        0.2103
     13 C         139.0818  137.6871  164.7735 C.3     1  UNL1        0.0850
     14 C         139.2443  138.0366  163.3239 C.3     1  UNL1        0.0096
     15 C         138.1661  138.7972  162.6104 C.3     1  UNL1        0.0008
     16 C         138.3908  140.2277  162.2190 C.3     1  UNL1        0.0047
     17 C         139.5624  140.9821  162.7743 C.3     1  UNL1        0.0264
     18 C         139.3426  142.2610  163.5268 C.ar    1  UNL1       -0.0222
     19 C         138.0069  142.5463  164.1468 C.ar    1  UNL1       -0.0043
     20 C         137.7871  143.8251  164.8992 C.ar    1  UNL1       -0.0003
     21 C         138.9031  144.8187  165.0317 C.ar    1  UNL1       -0.0000
     22 C         140.2388  144.5333  164.4117 C.ar    1  UNL1       -0.0003
     23 C         140.4586  143.2545  163.6593 C.ar    1  UNL1       -0.0043
@<TRIPOS>BOND
     1     1     2    2
     2     2    13    1
     3    13    14    1
     4    14    15    1
     5    15    16    1
     6    16    17    1
     7    17    18    1
     8    18    19   ar
     9    19    20   ar
    10    20    21   ar
    11    21    22   ar
    12    22    23   ar
    13     2     3   am
    14     5     3    1
    15     5     6    1
    16     6     7    1
    17     7     8    1
    18     8     9    1
    19     8    10    1
    20    10    11    1
    21    23    18   ar
    22    11     5    1
    23     3     4    1
    24     9    12    1
@<TRIPOS>MOLECULE
*****
 23 24 0 0 0
SMALL
GASTEIGER

@<TRIPOS>ATOM
      1 O         142.6424  141.5334  168.3990 O.2     1  UNL1       -0.2751
      2 C         141.7319  140.4532  167.8949 C.2     1  UNL1        0.2224
      3 N         141.9530  139.8601  166.5350 N.am    1  UNL1       -0.3060
      4 H         141.3554  139.1511  166.2041 H       1  UNL1        0.1494
      5 C         143.0845  140.3472  165.6793 C.3     1  UNL1        0.0717
      6 C         143.2677  141.8171  165.4435 C.3     1  UNL1        0.0220
      7 C         144.3993  142.3042  164.5877 C.3     1  UNL1        0.0309
      8 C         145.3478  141.3213  163.9678 C.3     1  UNL1        0.1106
      9 O         146.4794  141.8083  163.1121 O.3     1  UNL1       -0.3845
     10 C         145.1646  139.8513  164.2037 C.3     1  UNL1        0.0309
     11 C         144.0331  139.3642  165.0594 C.3     1  UNL1        0.0220
     12 H         146.9927  141.0499  162.7925 H       1  UNL1        0.2103
     13 C         140.6003  139.9661  168.7506 C.3     1  UNL1        0.0850
     14 C         139.1954  139.9991  168.2263 C.3     1  UNL1        0.0096
     15 C         138.7677  139.0284  167.1657 C.3     1  UNL1        0.0008
     16 C         137.9966  139.5119  165.9733 C.3     1  UNL1        0.0047
     17 C         138.7030  140.2395  164.8681 C.3     1  UNL1        0.0264
     18 C         138.6936  141.7391  164.8316 C.ar    1  UNL1       -0.0222
     19 C         139.6856  142.5154  165.6460 C.ar    1  UNL1       -0.0043
     20 C         139.6762  144.0149  165.6094 C.ar    1  UNL1       -0.0003
     21 C         138.6749  144.7381  164.7584 C.ar    1  UNL1       -0.0000
     22 C         137.6829  143.9618  163.9439 C.ar    1  UNL1       -0.0003
     23 C         137.6923  142.4623  163.9805 C.ar    1  UNL1       -0.0043
@<TRIPOS>BOND
     1     1     2    2
     2     2    13    1
     3    13    14    1
     4    14    15    1
     5    15    16    1
     6    16    17    1
     7    17    18    1
     8    18    19   ar
     9    19    20   ar
    10    20    21   ar
    11    21    22   ar
    12    22    23   ar
    13     2     3   am
    14     5     3    1
    15     5     6    1
    16     6     7    1
    17     7     8    1
    18     8     9    1
    19     8    10    1
    20    10    11    1
    21    23    18   ar
    22    11     5    1
    23     3     4    1
    24     9    12    1
@<TRIPOS>MOLECULE
*****
 23 24 0 0 0
SMALL
GASTEIGER

@<TRIPOS>ATOM
      1 O         142.9036  139.5769  165.2771 O.2     1  UNL1       -0.2751
      2 C         142.6246  141.0413  165.1108 C.2     1  UNL1        0.2224
      3 N         141.2696  141.5896  165.4471 N.am    1  UNL1       -0.3060
      4 H         141.0865  142.5507  165.3379 H       1  UNL1        0.1494
      5 C         140.1934  140.6734  165.9496 C.3     1  UNL1        0.0717
      6 C         139.3853  139.8629  164.9801 C.3     1  UNL1        0.0220
      7 C         138.3091  138.9467  165.4827 C.3     1  UNL1        0.0309
      8 C         138.0411  138.8411  166.9547 C.3     1  UNL1        0.1106
      9 O         136.9650  137.9249  167.4573 O.3     1  UNL1       -0.3845
     10 C         138.8493  139.6516  167.9242 C.3     1  UNL1        0.0309
     11 C         139.9254  140.5678  167.4217 C.3     1  UNL1        0.0220
     12 H         136.9231  137.9756  168.4251 H       1  UNL1        0.2103
     13 C         143.7009  141.9574  164.6083 C.3     1  UNL1        0.0850
     14 C         143.8027  143.3568  165.1387 C.3     1  UNL1        0.0096
     15 C         143.9429  144.5101  164.1899 C.3     1  UNL1        0.0008
     16 C         142.8301  144.8386  163.2391 C.3     1  UNL1        0.0047
     17 C         141.5398  145.3990  163.7596 C.3     1  UNL1        0.0264
     18 C         140.2916  144.5679  163.7213 C.ar    1  UNL1       -0.0222
     19 C         139.2405  144.7443  164.7768 C.ar    1  UNL1       -0.0043
     20 C         137.9924  143.9133  164.7385 C.ar    1  UNL1       -0.0003
     21 C         137.7953  142.9059  163.6447 C.ar    1  UNL1       -0.0000
     22 C         138.8464  142.7295  162.5893 C.ar    1  UNL1       -0.0003
     23 C         140.0945  143.5605  162.6276 C.ar    1  UNL1       -0.0043
@<TRIPOS>BOND
     1     1     2    2
     2     2    13    1
     3    13    14    1
     4    14    15    1
     5    15    16    1
     6    16    17    1
     7    17    18    1
     8    18    19   ar
     9    19    20   ar
    10    20    21   ar
    11    21    22   ar
    12    22    23   ar
    13     2     3   am
    14     5     3    1
    15     5     6    1
    16     6     7    1
    17     7     8    1
    18     8     9    1
    19     8    10    1
    20    10    11    1
    21    23    18   ar
    22    11     5    1
    23     3     4    1
    24     9    12    1
