@<TRIPOS>MOLECULE
*****
 31 34 0 0 0
SMALL
GASTEIGER

@<TRIPOS>ATOM
      1 C         140.9423  141.5603  160.2543 C.3     1  UNL1        0.0393
      2 C         140.3272  141.9811  158.9527 C.3     1  UNL1        0.0072
      3 C         139.0681  141.3235  158.4708 C.3     1  UNL1        0.0177
      4 C         138.4240  140.2451  159.2906 C.3     1  UNL1        0.0724
      5 N         139.0391  139.8243  160.5924 N.3     1  UNL1       -0.2687
      6 C         140.2982  140.4818  161.0743 C.3     1  UNL1        0.0767
      7 C         143.9529  140.9963  159.1284 C.3     1  UNL1        0.0517
      8 C         143.5852  141.9587  160.2187 C.2     1  UNL1        0.0551
      9 N         144.5368  142.8307  160.9829 N.2     1  UNL1       -0.2503
     10 C         143.7411  143.6289  161.9728 C.2     1  UNL1        0.0770
     11 C         144.1443  144.6517  162.9932 C.2     1  UNL1        0.0184
     12 C         143.1042  145.2957  163.8611 C.2     1  UNL1       -0.0027
     13 C         141.6609  144.9169  163.7087 C.2     1  UNL1       -0.0213
     14 C         141.2576  143.8942  162.6883 C.3     1  UNL1        0.0535
     15 C         142.2977  143.2502  161.8203 C.2     1  UNL1       -0.0030
     16 C         142.2014  142.2179  160.7363 C.2     1  UNL1       -0.0098
     17 C         138.3951  138.7458  161.4123 C.3     1  UNL1        0.0992
     18 C         138.4220  138.8254  162.9099 C.ar    1  UNL1       -0.0061
     19 C         138.0219  140.0953  163.6008 C.ar    1  UNL1       -0.0029
     20 C         138.0488  140.1747  165.0985 C.ar    1  UNL1       -0.0003
     21 C         138.4757  138.9844  165.9053 C.ar    1  UNL1        0.0001
     22 C         138.8758  137.7145  165.2143 C.ar    1  UNL1       -0.0003
     23 C         138.8489  137.6350  163.7167 C.ar    1  UNL1       -0.0029
     24 C         138.5026  139.0639  167.4029 C.2     1  UNL1        0.0047
     25 C         139.3355  140.1093  168.0835 C.2     1  UNL1        0.0598
     26 C         139.3624  140.1889  169.5812 C.2     1  UNL1        0.2679
     27 O         138.1027  139.9732  170.3664 O.2     1  UNL1       -0.2681
     28 N         140.6490  140.4842  170.2937 N.am    1  UNL1       -0.1934
     29 O         140.6758  140.5638  171.7913 O.3     1  UNL1       -0.2949
     30 H         141.4758  140.6258  169.7783 H       1  UNL1        0.1825
     31 H         139.7853  140.4011  172.1398 H       1  UNL1        0.2414
@<TRIPOS>BOND
     1     7     8    1
     2     8     9    2
     3     9    10    1
     4    10    11    2
     5    11    12    1
     6    12    13    2
     7    13    14    1
     8    14    15    1
     9    15    16    2
    10    16     1    1
    11     1     2    1
    12     2     3    1
    13     3     4    1
    14     4     5    1
    15     5    17    1
    16    17    18    1
    17    18    19   ar
    18    19    20   ar
    19    20    21   ar
    20    21    24    1
    21    24    25    2
    22    25    26    1
    23    26    27    2
    24    26    28   am
    25    28    29    1
    26    21    22   ar
    27    22    23   ar
    28     5     6    1
    29    16     8    1
    30     6     1    1
    31    15    10    1
    32    23    18   ar
    33    28    30    1
    34    29    31    1
@<TRIPOS>MOLECULE
*****
 31 34 0 0 0
SMALL
GASTEIGER

@<TRIPOS>ATOM
      1 C         141.6782  140.7244  160.4413 C.3     1  UNL1        0.0393
      2 C         141.8171  140.3756  158.9892 C.3     1  UNL1        0.0072
      3 C         140.8346  139.4435  158.3443 C.3     1  UNL1        0.0177
      4 C         139.7131  138.8601  159.1517 C.3     1  UNL1        0.0724
      5 N         139.5741  139.2089  160.6040 N.3     1  UNL1       -0.2687
      6 C         140.5567  140.1410  161.2488 C.3     1  UNL1        0.0767
      7 C         142.0159  143.9046  159.7919 C.3     1  UNL1        0.0517
      8 C         142.8160  143.1183  160.7877 C.2     1  UNL1        0.0551
      9 N         143.9117  143.6556  161.6597 N.2     1  UNL1       -0.2503
     10 C         144.4338  142.5259  162.4972 C.2     1  UNL1        0.0770
     11 C         145.5132  142.4627  163.5368 C.2     1  UNL1        0.0184
     12 C         145.8195  141.1640  164.2219 C.2     1  UNL1       -0.0027
     13 C         145.0464  139.9284  163.8674 C.2     1  UNL1       -0.0213
     14 C         143.9669  139.9916  162.8278 C.3     1  UNL1        0.0535
     15 C         143.6606  141.2904  162.1427 C.2     1  UNL1       -0.0030
     16 C         142.6608  141.6565  161.0862 C.2     1  UNL1       -0.0098
     17 C         138.4527  138.6256  161.4115 C.3     1  UNL1        0.0992
     18 C         138.4432  138.7807  162.9034 C.ar    1  UNL1       -0.0061
     19 C         138.0330  140.0855  163.5192 C.ar    1  UNL1       -0.0029
     20 C         138.0235  140.2405  165.0112 C.ar    1  UNL1       -0.0003
     21 C         138.4243  139.0909  165.8873 C.ar    1  UNL1        0.0001
     22 C         138.8346  137.7861  165.2715 C.ar    1  UNL1       -0.0003
     23 C         138.8440  137.6310  163.7796 C.ar    1  UNL1       -0.0029
     24 C         138.4148  139.2460  167.3793 C.2     1  UNL1        0.0047
     25 C         139.4780  140.0599  168.0554 C.2     1  UNL1        0.0598
     26 C         139.4686  140.2151  169.5473 C.2     1  UNL1        0.2679
     27 O         138.1975  140.0043  170.3152 O.2     1  UNL1       -0.2681
     28 N         140.7303  140.5810  170.2713 N.am    1  UNL1       -0.1934
     29 O         140.7208  140.7362  171.7633 O.3     1  UNL1       -0.2949
     30 H         141.5646  140.7194  169.7673 H       1  UNL1        0.1825
     31 H         139.8272  140.5666  172.1003 H       1  UNL1        0.2414
@<TRIPOS>BOND
     1     7     8    1
     2     8     9    2
     3     9    10    1
     4    10    11    2
     5    11    12    1
     6    12    13    2
     7    13    14    1
     8    14    15    1
     9    15    16    2
    10    16     1    1
    11     1     2    1
    12     2     3    1
    13     3     4    1
    14     4     5    1
    15     5    17    1
    16    17    18    1
    17    18    19   ar
    18    19    20   ar
    19    20    21   ar
    20    21    24    1
    21    24    25    2
    22    25    26    1
    23    26    27    2
    24    26    28   am
    25    28    29    1
    26    21    22   ar
    27    22    23   ar
    28     5     6    1
    29    16     8    1
    30     6     1    1
    31    15    10    1
    32    23    18   ar
    33    28    30    1
    34    29    31    1
@<TRIPOS>MOLECULE
*****
 31 34 0 0 0
SMALL
GASTEIGER

@<TRIPOS>ATOM
      1 C         139.4235  140.4069  161.2239 C.3     1  UNL1        0.0393
      2 C         138.0764  139.8205  160.9216 C.3     1  UNL1        0.0072
      3 C         137.6462  138.5470  161.5872 C.3     1  UNL1        0.0177
      4 C         138.5631  137.8599  162.5553 C.3     1  UNL1        0.0724
      5 N         139.9102  138.4462  162.8577 N.3     1  UNL1       -0.2687
      6 C         140.3404  139.7197  162.1920 C.3     1  UNL1        0.0767
      7 C         140.7881  140.6615  158.2705 C.3     1  UNL1        0.0517
      8 C         140.4809  141.7974  159.2007 C.2     1  UNL1        0.0551
      9 N         140.7471  143.2498  158.9367 N.2     1  UNL1       -0.2503
     10 C         140.2843  144.0304  160.1311 C.2     1  UNL1        0.0770
     11 C         140.2944  145.4991  160.4356 C.2     1  UNL1        0.0184
     12 C         139.7523  145.9979  161.7422 C.2     1  UNL1       -0.0027
     13 C         139.2002  145.0279  162.7444 C.2     1  UNL1       -0.0213
     14 C         139.1901  143.5592  162.4399 C.3     1  UNL1        0.0535
     15 C         139.7322  143.0605  161.1333 C.2     1  UNL1       -0.0030
     16 C         139.8537  141.6804  160.5582 C.2     1  UNL1       -0.0098
     17 C         140.8271  137.7592  163.8257 C.3     1  UNL1        0.0992
     18 C         141.2672  138.4667  165.0731 C.ar    1  UNL1       -0.0061
     19 C         140.2975  139.3246  165.8305 C.ar    1  UNL1       -0.0029
     20 C         140.7376  140.0320  167.0778 C.ar    1  UNL1       -0.0003
     21 C         142.1473  139.8816  167.5678 C.ar    1  UNL1        0.0001
     22 C         143.1170  139.0237  166.8104 C.ar    1  UNL1       -0.0003
     23 C         142.6770  138.3162  165.5630 C.ar    1  UNL1       -0.0029
     24 C         142.5873  140.5891  168.8151 C.2     1  UNL1        0.0047
     25 C         141.7712  141.7228  169.3618 C.2     1  UNL1        0.0598
     26 C         142.2112  142.4303  170.6092 C.2     1  UNL1        0.2679
     27 O         141.5312  142.1416  171.9146 O.2     1  UNL1       -0.2681
     28 N         143.3310  143.4266  170.5511 N.am    1  UNL1       -0.1934
     29 O         143.7709  144.1341  171.7985 O.3     1  UNL1       -0.2949
     30 H         143.7773  143.6161  169.6943 H       1  UNL1        0.1825
     31 H         143.2322  143.8342  172.5473 H       1  UNL1        0.2414
@<TRIPOS>BOND
     1     7     8    1
     2     8     9    2
     3     9    10    1
     4    10    11    2
     5    11    12    1
     6    12    13    2
     7    13    14    1
     8    14    15    1
     9    15    16    2
    10    16     1    1
    11     1     2    1
    12     2     3    1
    13     3     4    1
    14     4     5    1
    15     5    17    1
    16    17    18    1
    17    18    19   ar
    18    19    20   ar
    19    20    21   ar
    20    21    24    1
    21    24    25    2
    22    25    26    1
    23    26    27    2
    24    26    28   am
    25    28    29    1
    26    21    22   ar
    27    22    23   ar
    28     5     6    1
    29    16     8    1
    30     6     1    1
    31    15    10    1
    32    23    18   ar
    33    28    30    1
    34    29    31    1
@<TRIPOS>MOLECULE
*****
 31 34 0 0 0
SMALL
GASTEIGER

@<TRIPOS>ATOM
      1 C         142.8963  140.5198  165.6223 C.3     1  UNL1        0.0393
      2 C         143.7639  139.3123  165.4244 C.3     1  UNL1        0.0072
      3 C         144.8782  139.3457  164.4209 C.3     1  UNL1        0.0177
      4 C         145.1251  140.5866  163.6151 C.3     1  UNL1        0.0724
      5 N         144.2575  141.7941  163.8130 N.3     1  UNL1       -0.2687
      6 C         143.1432  141.7608  164.8165 C.3     1  UNL1        0.0767
      7 C         142.8404  142.0953  168.4796 C.3     1  UNL1        0.0517
      8 C         141.7563  141.2107  167.9392 C.2     1  UNL1        0.0551
      9 N         140.4561  140.8949  168.6172 N.2     1  UNL1       -0.2503
     10 C         139.6782  139.9755  167.7229 C.2     1  UNL1        0.0770
     11 C         138.3296  139.3357  167.8703 C.2     1  UNL1        0.0184
     12 C         137.8005  138.4434  166.7869 C.2     1  UNL1       -0.0027
     13 C         138.6199  138.1910  165.5561 C.2     1  UNL1       -0.0213
     14 C         139.9685  138.8309  165.4087 C.3     1  UNL1        0.0535
     15 C         140.4977  139.7232  166.4921 C.2     1  UNL1       -0.0030
     16 C         141.7820  140.4865  166.6258 C.2     1  UNL1       -0.0098
     17 C         144.5043  143.0351  163.0073 C.3     1  UNL1        0.0992
     18 C         143.5516  143.4220  161.9152 C.ar    1  UNL1       -0.0061
     19 C         143.7139  142.8464  160.5396 C.ar    1  UNL1       -0.0029
     20 C         142.7611  143.2333  159.4475 C.ar    1  UNL1       -0.0003
     21 C         141.6461  144.1958  159.7311 C.ar    1  UNL1        0.0001
     22 C         141.4838  144.7714  161.1067 C.ar    1  UNL1       -0.0003
     23 C         142.4365  144.3845  162.1988 C.ar    1  UNL1       -0.0029
     24 C         140.6934  144.5827  158.6390 C.2     1  UNL1        0.0047
     25 C         140.8677  145.8869  157.9189 C.2     1  UNL1        0.0598
     26 C         139.9151  146.2739  156.8267 C.2     1  UNL1        0.2679
     27 O         139.5585  145.2845  155.7572 O.2     1  UNL1       -0.2681
     28 N         139.3190  147.6501  156.8042 N.am    1  UNL1       -0.1934
     29 O         138.3663  148.0370  155.7120 O.3     1  UNL1       -0.2949
     30 H         139.5530  148.2995  157.5061 H       1  UNL1        0.1825
     31 H         138.2453  147.2877  155.1081 H       1  UNL1        0.2414
@<TRIPOS>BOND
     1     7     8    1
     2     8     9    2
     3     9    10    1
     4    10    11    2
     5    11    12    1
     6    12    13    2
     7    13    14    1
     8    14    15    1
     9    15    16    2
    10    16     1    1
    11     1     2    1
    12     2     3    1
    13     3     4    1
    14     4     5    1
    15     5    17    1
    16    17    18    1
    17    18    19   ar
    18    19    20   ar
    19    20    21   ar
    20    21    24    1
    21    24    25    2
    22    25    26    1
    23    26    27    2
    24    26    28   am
    25    28    29    1
    26    21    22   ar
    27    22    23   ar
    28     5     6    1
    29    16     8    1
    30     6     1    1
    31    15    10    1
    32    23    18   ar
    33    28    30    1
    34    29    31    1
@<TRIPOS>MOLECULE
*****
 31 34 0 0 0
SMALL
GASTEIGER

@<TRIPOS>ATOM
      1 C         142.5342  139.7353  164.2458 C.3     1  UNL1        0.0393
      2 C         143.7526  138.9723  164.6736 C.3     1  UNL1        0.0072
      3 C         145.1154  139.5721  164.4919 C.3     1  UNL1        0.0177
      4 C         145.2598  140.9351  163.8824 C.3     1  UNL1        0.0724
      5 N         144.0413  141.6982  163.4546 N.3     1  UNL1       -0.2687
      6 C         142.6785  141.0984  163.6363 C.3     1  UNL1        0.0767
      7 C         140.9426  137.8957  162.0705 C.3     1  UNL1        0.0517
      8 C         140.4398  138.2899  163.4276 C.2     1  UNL1        0.0551
      9 N         139.1172  137.9078  164.0232 N.2     1  UNL1       -0.2503
     10 C         139.0314  138.5173  165.3911 C.2     1  UNL1        0.0770
     11 C         137.9612  138.4793  166.4415 C.2     1  UNL1        0.0184
     12 C         138.1606  139.2001  167.7417 C.2     1  UNL1       -0.0027
     13 C         139.4302  139.9589  167.9916 C.2     1  UNL1       -0.0213
     14 C         140.5003  139.9968  166.9412 C.3     1  UNL1        0.0535
     15 C         140.3009  139.2760  165.6410 C.2     1  UNL1       -0.0030
     16 C         141.1714  139.1355  164.4275 C.2     1  UNL1       -0.0098
     17 C         144.1856  143.0611  162.8451 C.3     1  UNL1        0.0992
     18 C         143.2048  143.5276  161.8105 C.ar    1  UNL1       -0.0061
     19 C         143.3188  143.0418  160.3960 C.ar    1  UNL1       -0.0029
     20 C         142.3380  143.5084  159.3614 C.ar    1  UNL1       -0.0003
     21 C         141.2431  144.4607  159.7414 C.ar    1  UNL1        0.0001
     22 C         141.1290  144.9464  161.1559 C.ar    1  UNL1       -0.0003
     23 C         142.1098  144.4800  162.1905 C.ar    1  UNL1       -0.0029
     24 C         140.2623  144.9271  158.7067 C.2     1  UNL1        0.0047
     25 C         140.6489  146.0066  157.7397 C.2     1  UNL1        0.0598
     26 C         139.6681  146.4732  156.7051 C.2     1  UNL1        0.2679
     27 O         139.0463  145.4861  155.7622 O.2     1  UNL1       -0.2681
     28 N         139.3091  147.9267  156.6133 N.am    1  UNL1       -0.1934
     29 O         138.3284  148.3932  155.5786 O.3     1  UNL1       -0.2949
     30 H         139.7172  148.5745  157.2321 H       1  UNL1        0.1825
     31 H         138.0244  147.6346  155.0560 H       1  UNL1        0.2414
@<TRIPOS>BOND
     1     7     8    1
     2     8     9    2
     3     9    10    1
     4    10    11    2
     5    11    12    1
     6    12    13    2
     7    13    14    1
     8    14    15    1
     9    15    16    2
    10    16     1    1
    11     1     2    1
    12     2     3    1
    13     3     4    1
    14     4     5    1
    15     5    17    1
    16    17    18    1
    17    18    19   ar
    18    19    20   ar
    19    20    21   ar
    20    21    24    1
    21    24    25    2
    22    25    26    1
    23    26    27    2
    24    26    28   am
    25    28    29    1
    26    21    22   ar
    27    22    23   ar
    28     5     6    1
    29    16     8    1
    30     6     1    1
    31    15    10    1
    32    23    18   ar
    33    28    30    1
    34    29    31    1
@<TRIPOS>MOLECULE
*****
 31 34 0 0 0
SMALL
GASTEIGER

@<TRIPOS>ATOM
      1 C         138.6457  141.0022  161.7576 C.3     1  UNL1        0.0393
      2 C         137.9468  140.2993  160.6319 C.3     1  UNL1        0.0072
      3 C         137.6246  138.8386  160.7446 C.3     1  UNL1        0.0177
      4 C         138.0013  138.0808  161.9830 C.3     1  UNL1        0.0724
      5 N         138.7002  138.7837  163.1089 N.3     1  UNL1       -0.2687
      6 C         139.0224  140.2444  162.9962 C.3     1  UNL1        0.0767
      7 C         137.5570  143.3642  163.7287 C.3     1  UNL1        0.0517
      8 C         138.4675  143.5485  162.5510 C.2     1  UNL1        0.0551
      9 N         139.0374  144.8509  162.0724 N.2     1  UNL1       -0.2503
     10 C         139.8900  144.5701  160.8707 C.2     1  UNL1        0.0770
     11 C         140.6999  145.4677  159.9828 C.2     1  UNL1        0.0184
     12 C         141.4669  144.8894  158.8308 C.2     1  UNL1       -0.0027
     13 C         141.4239  143.4134  158.5666 C.2     1  UNL1       -0.0213
     14 C         140.6140  142.5159  159.4544 C.3     1  UNL1        0.0535
     15 C         139.8470  143.0942  160.6065 C.2     1  UNL1       -0.0030
     16 C         138.9679  142.4628  161.6450 C.2     1  UNL1       -0.0098
     17 C         139.0770  138.0260  164.3474 C.3     1  UNL1        0.0992
     18 C         139.4522  138.7684  165.5956 C.ar    1  UNL1       -0.0061
     19 C         140.8497  139.2848  165.7696 C.ar    1  UNL1       -0.0029
     20 C         141.2249  140.0272  167.0179 C.ar    1  UNL1       -0.0003
     21 C         140.2027  140.2531  168.0922 C.ar    1  UNL1        0.0001
     22 C         138.8052  139.7367  167.9181 C.ar    1  UNL1       -0.0003
     23 C         138.4299  138.9943  166.6699 C.ar    1  UNL1       -0.0029
     24 C         140.5779  140.9955  169.3404 C.2     1  UNL1        0.0047
     25 C         141.9220  141.6528  169.4465 C.2     1  UNL1        0.0598
     26 C         142.2973  142.3952  170.6948 C.2     1  UNL1        0.2679
     27 O         141.6718  142.0220  172.0061 O.2     1  UNL1       -0.2681
     28 N         143.2981  143.5108  170.6318 N.am    1  UNL1       -0.1934
     29 O         143.6733  144.2531  171.8800 O.3     1  UNL1       -0.2949
     30 H         143.7086  143.7558  169.7711 H       1  UNL1        0.1825
     31 H         143.1818  143.8891  172.6328 H       1  UNL1        0.2414
@<TRIPOS>BOND
     1     7     8    1
     2     8     9    2
     3     9    10    1
     4    10    11    2
     5    11    12    1
     6    12    13    2
     7    13    14    1
     8    14    15    1
     9    15    16    2
    10    16     1    1
    11     1     2    1
    12     2     3    1
    13     3     4    1
    14     4     5    1
    15     5    17    1
    16    17    18    1
    17    18    19   ar
    18    19    20   ar
    19    20    21   ar
    20    21    24    1
    21    24    25    2
    22    25    26    1
    23    26    27    2
    24    26    28   am
    25    28    29    1
    26    21    22   ar
    27    22    23   ar
    28     5     6    1
    29    16     8    1
    30     6     1    1
    31    15    10    1
    32    23    18   ar
    33    28    30    1
    34    29    31    1
@<TRIPOS>MOLECULE
*****
 31 34 0 0 0
SMALL
GASTEIGER

@<TRIPOS>ATOM
      1 C         140.3611  141.3244  160.3628 C.3     1  UNL1        0.0393
      2 C         139.7982  140.8736  159.0476 C.3     1  UNL1        0.0072
      3 C         140.2613  139.5847  158.4358 C.3     1  UNL1        0.0177
      4 C         141.2874  138.7466  159.1392 C.3     1  UNL1        0.0724
      5 N         141.8504  139.1974  160.4544 N.3     1  UNL1       -0.2687
      6 C         141.3873  140.4863  161.0662 C.3     1  UNL1        0.0767
      7 C         140.6700  144.2936  159.0444 C.3     1  UNL1        0.0517
      8 C         140.0400  143.9781  160.3686 C.2     1  UNL1        0.0551
      9 N         139.4414  144.9719  161.3194 N.2     1  UNL1       -0.2503
     10 C         138.9294  144.2213  162.5129 C.2     1  UNL1        0.0770
     11 C         138.2427  144.6769  163.7662 C.2     1  UNL1        0.0184
     12 C         137.8382  143.6748  164.8065 C.2     1  UNL1       -0.0027
     13 C         138.1205  142.2171  164.5934 C.2     1  UNL1       -0.0213
     14 C         138.8072  141.7615  163.3401 C.3     1  UNL1        0.0535
     15 C         139.2116  142.7636  162.2999 C.2     1  UNL1       -0.0030
     16 C         139.8980  142.6133  160.9746 C.2     1  UNL1       -0.0098
     17 C         142.8765  138.3594  161.1578 C.3     1  UNL1        0.0992
     18 C         142.9921  138.4133  162.6524 C.ar    1  UNL1       -0.0061
     19 C         141.9217  137.8060  163.5099 C.ar    1  UNL1       -0.0029
     20 C         142.0375  137.8600  165.0045 C.ar    1  UNL1       -0.0003
     21 C         143.2236  138.5212  165.6416 C.ar    1  UNL1        0.0001
     22 C         144.2940  139.1285  164.7841 C.ar    1  UNL1       -0.0003
     23 C         144.1783  139.0746  163.2895 C.ar    1  UNL1       -0.0029
     24 C         143.3392  138.5751  167.1361 C.2     1  UNL1        0.0047
     25 C         142.3496  139.3686  167.9367 C.2     1  UNL1        0.0598
     26 C         142.4652  139.4226  169.4313 C.2     1  UNL1        0.2679
     27 O         143.0166  138.2479  170.1838 O.2     1  UNL1       -0.2681
     28 N         142.0295  140.6511  170.1735 N.am    1  UNL1       -0.1934
     29 O         142.1451  140.7050  171.6681 O.3     1  UNL1       -0.2949
     30 H         141.6676  141.4221  169.6796 H       1  UNL1        0.1825
     31 H         142.5175  139.8707  171.9938 H       1  UNL1        0.2414
@<TRIPOS>BOND
     1     7     8    1
     2     8     9    2
     3     9    10    1
     4    10    11    2
     5    11    12    1
     6    12    13    2
     7    13    14    1
     8    14    15    1
     9    15    16    2
    10    16     1    1
    11     1     2    1
    12     2     3    1
    13     3     4    1
    14     4     5    1
    15     5    17    1
    16    17    18    1
    17    18    19   ar
    18    19    20   ar
    19    20    21   ar
    20    21    24    1
    21    24    25    2
    22    25    26    1
    23    26    27    2
    24    26    28   am
    25    28    29    1
    26    21    22   ar
    27    22    23   ar
    28     5     6    1
    29    16     8    1
    30     6     1    1
    31    15    10    1
    32    23    18   ar
    33    28    30    1
    34    29    31    1
@<TRIPOS>MOLECULE
*****
 31 34 0 0 0
SMALL
GASTEIGER

@<TRIPOS>ATOM
      1 C         141.0042  138.5278  158.5239 C.3     1  UNL1        0.0393
      2 C         142.2292  139.1050  159.1687 C.3     1  UNL1        0.0072
      3 C         142.1811  139.5609  160.5969 C.3     1  UNL1        0.0177
      4 C         140.9077  139.4395  161.3804 C.3     1  UNL1        0.0724
      5 N         139.6826  138.8622  160.7357 N.3     1  UNL1       -0.2687
      6 C         139.7308  138.4063  159.3075 C.3     1  UNL1        0.0767
      7 C         139.3048  139.8008  156.0457 C.3     1  UNL1        0.0517
      8 C         140.2712  138.6570  155.9566 C.2     1  UNL1        0.0551
      9 N         140.6263  137.8976  154.7127 N.2     1  UNL1       -0.2503
     10 C         141.6267  136.8431  155.0830 C.2     1  UNL1        0.0770
     11 C         142.3320  135.7988  154.2695 C.2     1  UNL1        0.0184
     12 C         143.3006  134.8622  154.9287 C.2     1  UNL1       -0.0027
     13 C         143.5639  134.9699  156.4014 C.2     1  UNL1       -0.0213
     14 C         142.8587  136.0142  157.2150 C.3     1  UNL1        0.0535
     15 C         141.8901  136.9508  156.5558 C.2     1  UNL1       -0.0030
     16 C         141.0523  138.0719  157.0957 C.2     1  UNL1       -0.0098
     17 C         138.4092  138.7407  161.5191 C.3     1  UNL1        0.0992
     18 C         138.4325  138.8724  163.0131 C.ar    1  UNL1       -0.0061
     19 C         138.1258  140.1932  163.6545 C.ar    1  UNL1       -0.0029
     20 C         138.1490  140.3248  165.1486 C.ar    1  UNL1       -0.0003
     21 C         138.4790  139.1356  166.0013 C.ar    1  UNL1        0.0001
     22 C         138.7857  137.8148  165.3599 C.ar    1  UNL1       -0.0003
     23 C         138.7624  137.6832  163.8658 C.ar    1  UNL1       -0.0029
     24 C         138.5022  139.2673  167.4953 C.2     1  UNL1        0.0047
     25 C         139.4444  140.2347  168.1483 C.2     1  UNL1        0.0598
     26 C         139.4677  140.3664  169.6423 C.2     1  UNL1        0.2679
     27 O         138.3313  139.8285  170.4604 O.2     1  UNL1       -0.2681
     28 N         140.6273  141.0360  170.3183 N.am    1  UNL1       -0.1934
     29 O         140.6505  141.1677  171.8123 O.3     1  UNL1       -0.2949
     30 H         141.3731  141.3890  169.7814 H       1  UNL1        0.1825
     31 H         139.8473  140.7710  172.1844 H       1  UNL1        0.2414
@<TRIPOS>BOND
     1     7     8    1
     2     8     9    2
     3     9    10    1
     4    10    11    2
     5    11    12    1
     6    12    13    2
     7    13    14    1
     8    14    15    1
     9    15    16    2
    10    16     1    1
    11     1     2    1
    12     2     3    1
    13     3     4    1
    14     4     5    1
    15     5    17    1
    16    17    18    1
    17    18    19   ar
    18    19    20   ar
    19    20    21   ar
    20    21    24    1
    21    24    25    2
    22    25    26    1
    23    26    27    2
    24    26    28   am
    25    28    29    1
    26    21    22   ar
    27    22    23   ar
    28     5     6    1
    29    16     8    1
    30     6     1    1
    31    15    10    1
    32    23    18   ar
    33    28    30    1
    34    29    31    1
@<TRIPOS>MOLECULE
*****
 31 34 0 0 0
SMALL
GASTEIGER

@<TRIPOS>ATOM
      1 C         142.1053  142.6340  161.3385 C.3     1  UNL1        0.0393
      2 C         142.9065  142.9214  160.1035 C.3     1  UNL1        0.0072
      3 C         144.3654  142.5756  160.0585 C.3     1  UNL1        0.0177
      4 C         145.0231  141.9423  161.2486 C.3     1  UNL1        0.0724
      5 N         144.2220  141.6549  162.4837 N.3     1  UNL1       -0.2687
      6 C         142.7630  142.0007  162.5287 C.3     1  UNL1        0.0767
      7 C         140.0189  142.4779  158.8341 C.3     1  UNL1        0.0517
      8 C         139.6874  142.9080  160.2323 C.2     1  UNL1        0.0551
      9 N         138.3387  143.3419  160.7250 N.2     1  UNL1       -0.2503
     10 C         138.4641  143.6818  162.1806 C.2     1  UNL1        0.0770
     11 C         137.4639  144.1662  163.1879 C.2     1  UNL1        0.0184
     12 C         137.8900  144.4268  164.6023 C.2     1  UNL1       -0.0027
     13 C         139.3162  144.2029  165.0093 C.2     1  UNL1       -0.0213
     14 C         140.3164  143.7185  164.0019 C.3     1  UNL1        0.0535
     15 C         139.8904  143.4580  162.5876 C.2     1  UNL1       -0.0030
     16 C         140.6464  142.9798  161.3835 C.2     1  UNL1       -0.0098
     17 C         144.8796  141.0217  163.6739 C.3     1  UNL1        0.0992
     18 C         144.0841  140.7568  164.9177 C.ar    1  UNL1       -0.0061
     19 C         143.7131  141.8910  165.8265 C.ar    1  UNL1       -0.0029
     20 C         142.9176  141.6260  167.0703 C.ar    1  UNL1       -0.0003
     21 C         142.4930  140.2269  167.4052 C.ar    1  UNL1        0.0001
     22 C         142.8640  139.0927  166.4964 C.ar    1  UNL1       -0.0003
     23 C         143.6595  139.3576  165.2526 C.ar    1  UNL1       -0.0029
     24 C         141.6975  139.9619  168.6490 C.2     1  UNL1        0.0047
     25 C         140.2543  140.3653  168.7163 C.2     1  UNL1        0.0598
     26 C         139.4587  140.1004  169.9600 C.2     1  UNL1        0.2679
     27 O         140.0803  140.3160  171.3080 O.2     1  UNL1       -0.2681
     28 N         138.0416  139.6200  169.8558 N.am    1  UNL1       -0.1934
     29 O         137.2461  139.3551  171.0996 O.3     1  UNL1       -0.2949
     30 H         137.6336  139.4785  168.9711 H       1  UNL1        0.1825
     31 H         137.7922  139.5430  171.8789 H       1  UNL1        0.2414
@<TRIPOS>BOND
     1     7     8    1
     2     8     9    2
     3     9    10    1
     4    10    11    2
     5    11    12    1
     6    12    13    2
     7    13    14    1
     8    14    15    1
     9    15    16    2
    10    16     1    1
    11     1     2    1
    12     2     3    1
    13     3     4    1
    14     4     5    1
    15     5    17    1
    16    17    18    1
    17    18    19   ar
    18    19    20   ar
    19    20    21   ar
    20    21    24    1
    21    24    25    2
    22    25    26    1
    23    26    27    2
    24    26    28   am
    25    28    29    1
    26    21    22   ar
    27    22    23   ar
    28     5     6    1
    29    16     8    1
    30     6     1    1
    31    15    10    1
    32    23    18   ar
    33    28    30    1
    34    29    31    1
