@<TRIPOS>MOLECULE
*****
 35 38 0 0 0
SMALL
GASTEIGER

@<TRIPOS>ATOM
      1 C         138.2210  141.0739  161.6959 C.ar    1  UNL1        0.1417
      2 C         138.2263  140.2018  162.9163 C.ar    1  UNL1        0.0743
      3 C         138.8777  138.8515  162.8703 C.ar    1  UNL1        0.1485
      4 C         139.5239  138.3732  161.6040 C.ar    1  UNL1        0.0422
      5 C         139.5186  139.2453  160.3836 C.ar    1  UNL1        0.0597
      6 C         138.8671  140.5957  160.4296 C.ar    1  UNL1        0.0416
      7 C         140.1648  138.7671  159.1171 C.2     1  UNL1        0.2508
      8 O         139.3282  138.5108  157.8987 O.2     1  UNL1       -0.2698
      9 N         141.6474  138.5451  159.0691 N.am    1  UNL1       -0.2644
     10 H         142.1965  138.7133  159.8688 H       1  UNL1        0.1566
     11 C         142.2936  138.0668  157.8027 C.ar    1  UNL1        0.1557
     12 C         142.5809  138.9015  156.5899 C.ar    1  UNL1        0.0564
     13 C         143.2308  138.0205  155.5643 C.ar    1  UNL1        0.0981
     14 N         143.3451  136.6415  156.1434 N.ar    1  UNL1       -0.2462
     15 C         143.9350  135.4441  155.4593 C.3     1  UNL1        0.1538
     16 N         142.7659  136.6701  157.5268 N.ar    1  UNL1       -0.1539
     17 O         137.5695  142.4243  161.7419 O.3     1  UNL1       -0.4765
     18 C         138.2029  143.5364  162.5242 C.3     1  UNL1        0.1954
     19 C         137.5590  144.0263  163.7873 C.3     1  UNL1        0.0500
     20 C         139.4804  144.1586  162.0435 C.3     1  UNL1        0.1855
     21 C         141.5367  145.2762  163.1715 C.3     1  UNL1        0.1743
     22 O         140.0848  145.3069  162.7957 O.3     1  UNL1       -0.3473
     23 O         138.8830  137.9794  164.0908 O.3     1  UNL1       -0.4534
     24 C         139.0244  138.5945  165.4515 C.ar    1  UNL1        0.1453
     25 C         137.8780  138.5494  166.4178 C.ar    1  UNL1        0.0376
     26 C         138.0194  139.1645  167.7786 C.ar    1  UNL1        0.0076
     27 C         139.3073  139.8248  168.1730 C.ar    1  UNL1        0.0538
     28 C         140.4536  139.8699  167.2067 C.ar    1  UNL1        0.0076
     29 C         140.3122  139.2548  165.8460 C.ar    1  UNL1        0.0376
     30 C         139.4487  140.4399  169.5337 C.2     1  UNL1        0.2490
     31 O         139.1028  139.6432  170.7566 O.2     1  UNL1       -0.2699
     32 N         139.9360  141.8519  169.6715 N.am    1  UNL1       -0.2760
     33 C         140.3640  142.9245  168.7142 C.3     1  UNL1        0.0955
     34 C         140.6251  143.8487  169.8665 C.3     1  UNL1        0.0430
     35 C         140.1971  142.7761  170.8238 C.3     1  UNL1        0.0955
@<TRIPOS>BOND
     1    21    22    1
     2    22    20    1
     3    20    18    1
     4    18    19    1
     5    18    17    1
     6    17     1    1
     7     1     2   ar
     8     2     3   ar
     9     3    23    1
    10    23    24    1
    11    24    25   ar
    12    25    26   ar
    13    26    27   ar
    14    27    30    1
    15    30    31    2
    16    30    32   am
    17    32    33    1
    18    33    34    1
    19    34    35    1
    20    27    28   ar
    21    28    29   ar
    22     3     4   ar
    23     4     5   ar
    24     5     7    1
    25     7     8    2
    26     7     9   am
    27     9    11    1
    28    11    12   ar
    29    12    13   ar
    30    13    14   ar
    31    14    15    1
    32    14    16   ar
    33     5     6   ar
    34     6     1   ar
    35    29    24   ar
    36    16    11   ar
    37    35    32    1
    38     9    10    1
@<TRIPOS>MOLECULE
*****
 35 38 0 0 0
SMALL
GASTEIGER

@<TRIPOS>ATOM
      1 C         137.9954  142.0160  161.7263 C.ar    1  UNL1        0.1417
      2 C         138.0348  141.0260  162.8525 C.ar    1  UNL1        0.0743
      3 C         138.4454  139.6073  162.5899 C.ar    1  UNL1        0.1485
      4 C         138.8165  139.1787  161.2012 C.ar    1  UNL1        0.0422
      5 C         138.7771  140.1688  160.0751 C.ar    1  UNL1        0.0597
      6 C         138.3665  141.5874  160.3376 C.ar    1  UNL1        0.0416
      7 C         139.1483  139.7402  158.6863 C.2     1  UNL1        0.2508
      8 O         139.2141  140.7525  157.5814 O.2     1  UNL1       -0.2698
      9 N         139.4537  138.2993  158.4025 N.am    1  UNL1       -0.2644
     10 H         139.4105  137.6349  159.1277 H       1  UNL1        0.1566
     11 C         139.8248  137.8707  157.0137 C.ar    1  UNL1        0.1557
     12 C         141.2178  137.6588  156.4992 C.ar    1  UNL1        0.0564
     13 C         141.1221  137.2359  155.0632 C.ar    1  UNL1        0.0981
     14 N         139.6700  137.1866  154.6903 N.ar    1  UNL1       -0.2462
     15 C         139.1168  136.8109  153.3476 C.3     1  UNL1        0.1538
     16 N         138.8683  137.5789  155.8958 N.ar    1  UNL1       -0.1539
     17 O         137.5848  143.4346  161.9888 O.3     1  UNL1       -0.4765
     18 C         138.4119  144.2997  162.8929 C.3     1  UNL1        0.1954
     19 C         138.2102  144.2408  164.3781 C.3     1  UNL1        0.0500
     20 C         139.4407  145.2238  162.3118 C.3     1  UNL1        0.1855
     21 C         140.5768  144.4359  160.1121 C.3     1  UNL1        0.1743
     22 O         139.6018  145.3263  160.8240 O.3     1  UNL1       -0.3473
     23 O         138.4848  138.6173  163.7162 O.3     1  UNL1       -0.4534
     24 C         138.9260  139.0525  165.0822 C.ar    1  UNL1        0.1453
     25 C         140.3052  139.6068  165.2836 C.ar    1  UNL1        0.0376
     26 C         140.7464  140.0420  166.6496 C.ar    1  UNL1        0.0076
     27 C         139.8084  139.9228  167.8142 C.ar    1  UNL1        0.0538
     28 C         138.4293  139.3685  167.6126 C.ar    1  UNL1        0.0076
     29 C         137.9881  138.9333  166.2466 C.ar    1  UNL1        0.0376
     30 C         140.2496  140.3580  169.1802 C.2     1  UNL1        0.2490
     31 O         140.5004  139.3354  170.2485 O.2     1  UNL1       -0.2699
     32 N         140.4401  141.8158  169.4778 N.am    1  UNL1       -0.2760
     33 C         140.2923  143.0865  168.6945 C.3     1  UNL1        0.0955
     34 C         140.7095  143.8774  169.8988 C.3     1  UNL1        0.0430
     35 C         140.8573  142.6068  170.6821 C.3     1  UNL1        0.0955
@<TRIPOS>BOND
     1    21    22    1
     2    22    20    1
     3    20    18    1
     4    18    19    1
     5    18    17    1
     6    17     1    1
     7     1     2   ar
     8     2     3   ar
     9     3    23    1
    10    23    24    1
    11    24    25   ar
    12    25    26   ar
    13    26    27   ar
    14    27    30    1
    15    30    31    2
    16    30    32   am
    17    32    33    1
    18    33    34    1
    19    34    35    1
    20    27    28   ar
    21    28    29   ar
    22     3     4   ar
    23     4     5   ar
    24     5     7    1
    25     7     8    2
    26     7     9   am
    27     9    11    1
    28    11    12   ar
    29    12    13   ar
    30    13    14   ar
    31    14    15    1
    32    14    16   ar
    33     5     6   ar
    34     6     1   ar
    35    29    24   ar
    36    16    11   ar
    37    35    32    1
    38     9    10    1
@<TRIPOS>MOLECULE
*****
 35 38 0 0 0
SMALL
GASTEIGER

@<TRIPOS>ATOM
      1 C         144.4196  141.2510  162.5460 C.ar    1  UNL1        0.1417
      2 C         143.9668  140.3506  163.6570 C.ar    1  UNL1        0.0743
      3 C         143.3348  139.0277  163.3400 C.ar    1  UNL1        0.1485
      4 C         143.1555  138.6052  161.9119 C.ar    1  UNL1        0.0422
      5 C         143.6082  139.5056  160.8010 C.ar    1  UNL1        0.0597
      6 C         144.2403  140.8285  161.1180 C.ar    1  UNL1        0.0416
      7 C         143.4289  139.0831  159.3728 C.2     1  UNL1        0.2508
      8 O         144.0871  139.8612  158.2722 O.2     1  UNL1       -0.2698
      9 N         142.5914  137.8825  159.0454 N.am    1  UNL1       -0.2644
     10 H         142.1594  137.3719  159.7678 H       1  UNL1        0.1566
     11 C         142.4121  137.4600  157.6173 C.ar    1  UNL1        0.1557
     12 C         141.6431  138.2057  156.5672 C.ar    1  UNL1        0.0564
     13 C         141.7260  137.4242  155.2895 C.ar    1  UNL1        0.0981
     14 N         142.5464  136.1957  155.5500 N.ar    1  UNL1       -0.2462
     15 C         142.8834  135.1318  154.5478 C.3     1  UNL1        0.1538
     16 N         142.9704  136.2178  156.9886 N.ar    1  UNL1       -0.1539
     17 O         145.0516  142.5739  162.8630 O.3     1  UNL1       -0.4765
     18 C         144.2339  143.6653  163.4876 C.3     1  UNL1        0.1954
     19 C         143.2330  144.4184  162.6623 C.3     1  UNL1        0.0500
     20 C         144.4170  144.0037  164.9374 C.3     1  UNL1        0.1855
     21 C         142.5579  142.4455  165.8678 C.3     1  UNL1        0.1743
     22 O         143.9181  143.0649  165.9955 O.3     1  UNL1       -0.3473
     23 O         142.8821  138.1274  164.4510 O.3     1  UNL1       -0.4534
     24 C         142.2673  138.7130  165.6876 C.ar    1  UNL1        0.1453
     25 C         143.0912  138.8736  166.9309 C.ar    1  UNL1        0.0376
     26 C         142.4764  139.4592  168.1675 C.ar    1  UNL1        0.0076
     27 C         141.0378  139.8842  168.1608 C.ar    1  UNL1        0.0538
     28 C         140.2141  139.7235  166.9176 C.ar    1  UNL1        0.0076
     29 C         140.8288  139.1379  165.6810 C.ar    1  UNL1        0.0376
     30 C         140.4231  140.4698  169.3974 C.2     1  UNL1        0.2490
     31 O         139.8681  139.5669  170.4589 O.2     1  UNL1       -0.2699
     32 N         140.3633  141.9584  169.5725 N.am    1  UNL1       -0.2760
     33 C         140.7986  143.1405  168.7582 C.3     1  UNL1        0.0955
     34 C         140.2787  144.0635  169.8202 C.3     1  UNL1        0.0430
     35 C         139.8435  142.8814  170.6345 C.3     1  UNL1        0.0955
@<TRIPOS>BOND
     1    21    22    1
     2    22    20    1
     3    20    18    1
     4    18    19    1
     5    18    17    1
     6    17     1    1
     7     1     2   ar
     8     2     3   ar
     9     3    23    1
    10    23    24    1
    11    24    25   ar
    12    25    26   ar
    13    26    27   ar
    14    27    30    1
    15    30    31    2
    16    30    32   am
    17    32    33    1
    18    33    34    1
    19    34    35    1
    20    27    28   ar
    21    28    29   ar
    22     3     4   ar
    23     4     5   ar
    24     5     7    1
    25     7     8    2
    26     7     9   am
    27     9    11    1
    28    11    12   ar
    29    12    13   ar
    30    13    14   ar
    31    14    15    1
    32    14    16   ar
    33     5     6   ar
    34     6     1   ar
    35    29    24   ar
    36    16    11   ar
    37    35    32    1
    38     9    10    1
@<TRIPOS>MOLECULE
*****
 35 38 0 0 0
SMALL
GASTEIGER

@<TRIPOS>ATOM
      1 C         140.3277  141.5896  167.2459 C.ar    1  UNL1        0.1417
      2 C         139.8764  141.0040  165.9408 C.ar    1  UNL1        0.0743
      3 C         138.8798  139.8831  165.9264 C.ar    1  UNL1        0.1485
      4 C         138.3345  139.3477  167.2171 C.ar    1  UNL1        0.0422
      5 C         138.7857  139.9333  168.5222 C.ar    1  UNL1        0.0597
      6 C         139.7824  141.0543  168.5366 C.ar    1  UNL1        0.0416
      7 C         138.2404  139.3980  169.8130 C.2     1  UNL1        0.2508
      8 O         139.0331  139.5404  171.0785 O.2     1  UNL1       -0.2698
      9 N         136.9025  138.7203  169.8383 N.am    1  UNL1       -0.2644
     10 H         136.3823  138.6269  169.0077 H       1  UNL1        0.1566
     11 C         136.3571  138.1850  171.1291 C.ar    1  UNL1        0.1557
     12 C         135.3007  138.8314  171.9753 C.ar    1  UNL1        0.0564
     13 C         135.0631  137.9552  173.1695 C.ar    1  UNL1        0.0981
     14 N         135.9727  136.7673  173.0611 N.ar    1  UNL1       -0.2462
     15 C         136.0662  135.6361  174.0417 C.3     1  UNL1        0.1538
     16 N         136.7724  136.9094  171.8001 N.ar    1  UNL1       -0.1539
     17 O         141.3244  142.7105  167.2603 O.3     1  UNL1       -0.4765
     18 C         142.7889  142.4104  167.3821 C.3     1  UNL1        0.1954
     19 C         143.6694  142.4662  166.1690 C.3     1  UNL1        0.0500
     20 C         143.3731  142.0545  168.7171 C.3     1  UNL1        0.1855
     21 C         142.6620  140.3983  170.5883 C.3     1  UNL1        0.1743
     22 O         143.2590  140.6516  169.2357 O.3     1  UNL1       -0.3473
     23 O         138.4285  139.2975  164.6212 O.3     1  UNL1       -0.4534
     24 C         138.5389  140.1021  163.3600 C.ar    1  UNL1        0.1453
     25 C         139.5599  139.7359  162.3238 C.ar    1  UNL1        0.0376
     26 C         139.6703  140.5405  161.0627 C.ar    1  UNL1        0.0076
     27 C         138.7598  141.7113  160.8378 C.ar    1  UNL1        0.0538
     28 C         137.7390  142.0774  161.8740 C.ar    1  UNL1        0.0076
     29 C         137.6286  141.2728  163.1352 C.ar    1  UNL1        0.0376
     30 C         138.8703  142.5159  159.5767 C.2     1  UNL1        0.2490
     31 O         138.0274  142.1647  158.3867 O.2     1  UNL1       -0.2699
     32 N         139.8237  143.6718  159.5056 N.am    1  UNL1       -0.2760
     33 C         140.7969  144.3040  160.4560 C.3     1  UNL1        0.0955
     34 C         141.1720  145.3064  159.4050 C.3     1  UNL1        0.0430
     35 C         140.1988  144.6742  158.4546 C.3     1  UNL1        0.0955
@<TRIPOS>BOND
     1    21    22    1
     2    22    20    1
     3    20    18    1
     4    18    19    1
     5    18    17    1
     6    17     1    1
     7     1     2   ar
     8     2     3   ar
     9     3    23    1
    10    23    24    1
    11    24    25   ar
    12    25    26   ar
    13    26    27   ar
    14    27    30    1
    15    30    31    2
    16    30    32   am
    17    32    33    1
    18    33    34    1
    19    34    35    1
    20    27    28   ar
    21    28    29   ar
    22     3     4   ar
    23     4     5   ar
    24     5     7    1
    25     7     8    2
    26     7     9   am
    27     9    11    1
    28    11    12   ar
    29    12    13   ar
    30    13    14   ar
    31    14    15    1
    32    14    16   ar
    33     5     6   ar
    34     6     1   ar
    35    29    24   ar
    36    16    11   ar
    37    35    32    1
    38     9    10    1
@<TRIPOS>MOLECULE
*****
 35 38 0 0 0
SMALL
GASTEIGER

@<TRIPOS>ATOM
      1 C         140.1823  141.3421  166.6742 C.ar    1  UNL1        0.1417
      2 C         139.8174  140.5455  165.4567 C.ar    1  UNL1        0.0743
      3 C         138.9088  139.3586  165.5816 C.ar    1  UNL1        0.1485
      4 C         138.3649  138.9683  166.9239 C.ar    1  UNL1        0.0422
      5 C         138.7298  139.7649  168.1413 C.ar    1  UNL1        0.0597
      6 C         139.6384  140.9518  168.0165 C.ar    1  UNL1        0.0416
      7 C         138.1860  139.3746  169.4838 C.2     1  UNL1        0.2508
      8 O         138.8973  139.8005  170.7338 O.2     1  UNL1       -0.2698
      9 N         136.9309  138.5584  169.5761 N.am    1  UNL1       -0.2644
     10 H         136.4640  138.2789  168.7556 H       1  UNL1        0.1566
     11 C         136.3870  138.1681  170.9185 C.ar    1  UNL1        0.1557
     12 C         135.4944  139.0057  171.7855 C.ar    1  UNL1        0.0564
     13 C         135.1960  138.2270  173.0324 C.ar    1  UNL1        0.0981
     14 N         135.9044  136.9082  172.9360 N.ar    1  UNL1       -0.2462
     15 C         135.8807  135.8175  173.9652 C.3     1  UNL1        0.1538
     16 N         136.6404  136.8719  171.6295 N.ar    1  UNL1       -0.1539
     17 O         141.0909  142.5290  166.5493 O.3     1  UNL1       -0.4765
     18 C         141.2806  143.1915  165.2170 C.3     1  UNL1        0.1954
     19 C         140.2404  144.1379  164.6951 C.3     1  UNL1        0.0500
     20 C         142.5105  142.9076  164.4065 C.3     1  UNL1        0.1855
     21 C         143.8154  144.8807  163.3321 C.3     1  UNL1        0.1743
     22 O         143.6618  143.8689  164.4288 O.3     1  UNL1       -0.3473
     23 O         138.5439  138.5620  164.3640 O.3     1  UNL1       -0.4534
     24 C         139.4682  138.5315  163.1830 C.ar    1  UNL1        0.1453
     25 C         140.6726  137.6374  163.1960 C.ar    1  UNL1        0.0376
     26 C         141.5969  137.6070  162.0150 C.ar    1  UNL1        0.0076
     27 C         141.3168  138.4706  160.8210 C.ar    1  UNL1        0.0538
     28 C         140.1124  139.3646  160.8079 C.ar    1  UNL1        0.0076
     29 C         139.1881  139.3951  161.9890 C.ar    1  UNL1        0.0376
     30 C         142.2410  138.4402  159.6399 C.2     1  UNL1        0.2490
     31 O         143.7140  138.6457  159.8349 O.2     1  UNL1       -0.2699
     32 N         141.6923  138.2042  158.2640 N.am    1  UNL1       -0.2760
     33 C         140.3256  137.9658  157.6936 C.3     1  UNL1        0.0955
     34 C         140.9163  137.8705  156.3181 C.3     1  UNL1        0.0430
     35 C         142.2830  138.1088  156.8885 C.3     1  UNL1        0.0955
@<TRIPOS>BOND
     1    21    22    1
     2    22    20    1
     3    20    18    1
     4    18    19    1
     5    18    17    1
     6    17     1    1
     7     1     2   ar
     8     2     3   ar
     9     3    23    1
    10    23    24    1
    11    24    25   ar
    12    25    26   ar
    13    26    27   ar
    14    27    30    1
    15    30    31    2
    16    30    32   am
    17    32    33    1
    18    33    34    1
    19    34    35    1
    20    27    28   ar
    21    28    29   ar
    22     3     4   ar
    23     4     5   ar
    24     5     7    1
    25     7     8    2
    26     7     9   am
    27     9    11    1
    28    11    12   ar
    29    12    13   ar
    30    13    14   ar
    31    14    15    1
    32    14    16   ar
    33     5     6   ar
    34     6     1   ar
    35    29    24   ar
    36    16    11   ar
    37    35    32    1
    38     9    10    1
@<TRIPOS>MOLECULE
*****
 35 38 0 0 0
SMALL
GASTEIGER

@<TRIPOS>ATOM
      1 C         140.5731  141.2400  166.9371 C.ar    1  UNL1        0.1417
      2 C         139.9592  140.7581  165.6562 C.ar    1  UNL1        0.0743
      3 C         138.7815  139.8298  165.6916 C.ar    1  UNL1        0.1485
      4 C         138.2176  139.3835  167.0079 C.ar    1  UNL1        0.0422
      5 C         138.8315  139.8654  168.2888 C.ar    1  UNL1        0.0597
      6 C         140.0093  140.7936  168.2534 C.ar    1  UNL1        0.0416
      7 C         138.2677  139.4190  169.6053 C.2     1  UNL1        0.2508
      8 O         139.0121  139.7052  170.8757 O.2     1  UNL1       -0.2698
      9 N         136.9595  138.6865  169.6512 N.am    1  UNL1       -0.2644
     10 H         136.4710  138.4987  168.8174 H       1  UNL1        0.1566
     11 C         136.3957  138.2401  170.9676 C.ar    1  UNL1        0.1557
     12 C         135.4658  139.0288  171.8413 C.ar    1  UNL1        0.0564
     13 C         135.1581  138.2028  173.0551 C.ar    1  UNL1        0.0981
     14 N         135.8979  136.9038  172.9315 N.ar    1  UNL1       -0.2462
     15 C         135.8766  135.7792  173.9238 C.3     1  UNL1        0.1538
     16 N         136.6628  136.9269  171.6414 N.ar    1  UNL1       -0.1539
     17 O         141.7509  142.1683  166.9017 O.3     1  UNL1       -0.4765
     18 C         142.6541  142.1886  165.7044 C.3     1  UNL1        0.1954
     19 C         143.6635  141.0967  165.5077 C.3     1  UNL1        0.0500
     20 C         142.5478  143.3009  164.7035 C.3     1  UNL1        0.1855
     21 C         143.7556  145.1164  163.2909 C.3     1  UNL1        0.1743
     22 O         143.6919  144.2526  164.5156 O.3     1  UNL1       -0.3473
     23 O         138.1676  139.3479  164.4105 O.3     1  UNL1       -0.4534
     24 C         138.3036  140.1649  163.1599 C.ar    1  UNL1        0.1453
     25 C         137.6481  141.5110  163.0684 C.ar    1  UNL1        0.0376
     26 C         137.7841  142.3280  161.8177 C.ar    1  UNL1        0.0076
     27 C         138.5755  141.7987  160.6585 C.ar    1  UNL1        0.0538
     28 C         139.2309  140.4526  160.7501 C.ar    1  UNL1        0.0076
     29 C         139.0949  139.6357  162.0007 C.ar    1  UNL1        0.0376
     30 C         138.7115  142.6156  159.4079 C.2     1  UNL1        0.2490
     31 O         139.4176  143.9384  159.4491 O.2     1  UNL1       -0.2699
     32 N         138.1413  142.1098  158.1159 N.am    1  UNL1       -0.2760
     33 C         137.3943  140.8786  157.6961 C.3     1  UNL1        0.0955
     34 C         137.3350  141.3944  156.2889 C.3     1  UNL1        0.0430
     35 C         138.0820  142.6256  156.7087 C.3     1  UNL1        0.0955
@<TRIPOS>BOND
     1    21    22    1
     2    22    20    1
     3    20    18    1
     4    18    19    1
     5    18    17    1
     6    17     1    1
     7     1     2   ar
     8     2     3   ar
     9     3    23    1
    10    23    24    1
    11    24    25   ar
    12    25    26   ar
    13    26    27   ar
    14    27    30    1
    15    30    31    2
    16    30    32   am
    17    32    33    1
    18    33    34    1
    19    34    35    1
    20    27    28   ar
    21    28    29   ar
    22     3     4   ar
    23     4     5   ar
    24     5     7    1
    25     7     8    2
    26     7     9   am
    27     9    11    1
    28    11    12   ar
    29    12    13   ar
    30    13    14   ar
    31    14    15    1
    32    14    16   ar
    33     5     6   ar
    34     6     1   ar
    35    29    24   ar
    36    16    11   ar
    37    35    32    1
    38     9    10    1
@<TRIPOS>MOLECULE
*****
 35 38 0 0 0
SMALL
GASTEIGER

@<TRIPOS>ATOM
      1 C         141.1557  142.6394  161.3912 C.ar    1  UNL1        0.1417
      2 C         141.3677  141.5528  162.4032 C.ar    1  UNL1        0.0743
      3 C         140.7338  140.2081  162.2038 C.ar    1  UNL1        0.1485
      4 C         139.8877  139.9500  160.9924 C.ar    1  UNL1        0.0422
      5 C         139.6756  141.0366  159.9804 C.ar    1  UNL1        0.0597
      6 C         140.3096  142.3813  160.1798 C.ar    1  UNL1        0.0416
      7 C         138.8295  140.7785  158.7689 C.2     1  UNL1        0.2508
      8 O         138.8055  139.4133  158.1479 O.2     1  UNL1       -0.2698
      9 N         138.0075  141.8856  158.1786 N.am    1  UNL1       -0.2644
     10 H         138.0233  142.7816  158.5862 H       1  UNL1        0.1566
     11 C         137.1614  141.6275  156.9671 C.ar    1  UNL1        0.1557
     12 C         137.3127  142.2884  155.6290 C.ar    1  UNL1        0.0564
     13 C         136.2603  141.7327  154.7159 C.ar    1  UNL1        0.0981
     14 N         135.4587  140.7283  155.4897 N.ar    1  UNL1       -0.2462
     15 C         134.3031  139.9292  154.9645 C.3     1  UNL1        0.1538
     16 N         136.0156  140.6634  156.8810 N.ar    1  UNL1       -0.1539
     17 O         141.7896  143.9842  161.5906 O.3     1  UNL1       -0.4765
     18 C         141.1630  144.9779  162.5232 C.3     1  UNL1        0.1954
     19 C         141.6957  145.1384  163.9163 C.3     1  UNL1        0.0500
     20 C         140.0038  145.8111  162.0629 C.3     1  UNL1        0.1855
     21 C         138.1281  144.2982  163.0340 C.3     1  UNL1        0.1743
     22 O         138.6389  145.1995  161.9492 O.3     1  UNL1       -0.3473
     23 O         140.9459  139.1214  163.2159 O.3     1  UNL1       -0.4534
     24 C         140.8986  139.4411  164.6807 C.ar    1  UNL1        0.1453
     25 C         139.5958  139.8103  165.3260 C.ar    1  UNL1        0.0376
     26 C         139.5484  140.1300  166.7908 C.ar    1  UNL1        0.0076
     27 C         140.8040  140.0806  167.6102 C.ar    1  UNL1        0.0538
     28 C         142.1067  139.7114  166.9648 C.ar    1  UNL1        0.0076
     29 C         142.1540  139.3917  165.5000 C.ar    1  UNL1        0.0376
     30 C         140.7567  140.4003  169.0749 C.2     1  UNL1        0.2490
     31 O         139.8368  139.6358  169.9801 O.2     1  UNL1       -0.2699
     32 N         141.6293  141.4845  169.6345 N.am    1  UNL1       -0.2760
     33 C         142.6412  142.4327  169.0627 C.3     1  UNL1        0.0955
     34 C         142.8633  143.0178  170.4259 C.3     1  UNL1        0.0430
     35 C         141.8514  142.0696  170.9977 C.3     1  UNL1        0.0955
@<TRIPOS>BOND
     1    21    22    1
     2    22    20    1
     3    20    18    1
     4    18    19    1
     5    18    17    1
     6    17     1    1
     7     1     2   ar
     8     2     3   ar
     9     3    23    1
    10    23    24    1
    11    24    25   ar
    12    25    26   ar
    13    26    27   ar
    14    27    30    1
    15    30    31    2
    16    30    32   am
    17    32    33    1
    18    33    34    1
    19    34    35    1
    20    27    28   ar
    21    28    29   ar
    22     3     4   ar
    23     4     5   ar
    24     5     7    1
    25     7     8    2
    26     7     9   am
    27     9    11    1
    28    11    12   ar
    29    12    13   ar
    30    13    14   ar
    31    14    15    1
    32    14    16   ar
    33     5     6   ar
    34     6     1   ar
    35    29    24   ar
    36    16    11   ar
    37    35    32    1
    38     9    10    1
@<TRIPOS>MOLECULE
*****
 35 38 0 0 0
SMALL
GASTEIGER

@<TRIPOS>ATOM
      1 C         140.3270  141.2982  161.6717 C.ar    1  UNL1        0.1417
      2 C         140.2906  140.4379  162.8999 C.ar    1  UNL1        0.0743
      3 C         140.5472  138.9640  162.7912 C.ar    1  UNL1        0.1485
      4 C         140.8401  138.3504  161.4542 C.ar    1  UNL1        0.0422
      5 C         140.8765  139.2107  160.2260 C.ar    1  UNL1        0.0597
      6 C         140.6200  140.6846  160.3347 C.ar    1  UNL1        0.0416
      7 C         141.1695  138.5971  158.8889 C.2     1  UNL1        0.2508
      8 O         140.1932  138.7551  157.7611 O.2     1  UNL1       -0.2698
      9 N         142.4387  137.8257  158.6796 N.am    1  UNL1       -0.2644
     10 H         143.0795  137.7220  159.4198 H       1  UNL1        0.1566
     11 C         142.7317  137.2121  157.3425 C.ar    1  UNL1        0.1557
     12 C         143.2591  137.9337  156.1379 C.ar    1  UNL1        0.0564
     13 C         143.4021  136.9368  155.0261 C.ar    1  UNL1        0.0981
     14 N         142.9630  135.5991  155.5438 N.ar    1  UNL1       -0.2462
     15 C         142.9420  134.3165  154.7664 C.3     1  UNL1        0.1538
     16 N         142.5487  135.7693  156.9754 N.ar    1  UNL1       -0.1539
     17 O         140.0704  142.7721  161.7805 O.3     1  UNL1       -0.4765
     18 C         141.2158  143.7201  161.9790 C.3     1  UNL1        0.1954
     19 C         141.4696  144.3170  163.3315 C.3     1  UNL1        0.0500
     20 C         142.1073  144.0713  160.8249 C.3     1  UNL1        0.1855
     21 C         140.3693  145.3600  159.3866 C.3     1  UNL1        0.1743
     22 O         141.7598  145.2262  159.9331 O.3     1  UNL1       -0.3473
     23 O         140.5107  138.1037  164.0195 O.3     1  UNL1       -0.4534
     24 C         140.2567  138.7233  165.3617 C.ar    1  UNL1        0.1453
     25 C         141.3984  139.2833  166.1574 C.ar    1  UNL1        0.0376
     26 C         141.1444  139.9028  167.4997 C.ar    1  UNL1        0.0076
     27 C         139.7487  139.9623  168.0463 C.ar    1  UNL1        0.0538
     28 C         138.6072  139.4022  167.2506 C.ar    1  UNL1        0.0076
     29 C         138.8612  138.7827  165.9083 C.ar    1  UNL1        0.0376
     30 C         139.4948  140.5818  169.3885 C.2     1  UNL1        0.2490
     31 O         138.8533  139.7745  170.4779 O.2     1  UNL1       -0.2699
     32 N         139.8822  142.0087  169.6414 N.am    1  UNL1       -0.2760
     33 C         140.5218  143.0943  168.8276 C.3     1  UNL1        0.0955
     34 C         140.4302  144.0266  169.9991 C.3     1  UNL1        0.0430
     35 C         139.7906  142.9409  170.8130 C.3     1  UNL1        0.0955
@<TRIPOS>BOND
     1    21    22    1
     2    22    20    1
     3    20    18    1
     4    18    19    1
     5    18    17    1
     6    17     1    1
     7     1     2   ar
     8     2     3   ar
     9     3    23    1
    10    23    24    1
    11    24    25   ar
    12    25    26   ar
    13    26    27   ar
    14    27    30    1
    15    30    31    2
    16    30    32   am
    17    32    33    1
    18    33    34    1
    19    34    35    1
    20    27    28   ar
    21    28    29   ar
    22     3     4   ar
    23     4     5   ar
    24     5     7    1
    25     7     8    2
    26     7     9   am
    27     9    11    1
    28    11    12   ar
    29    12    13   ar
    30    13    14   ar
    31    14    15    1
    32    14    16   ar
    33     5     6   ar
    34     6     1   ar
    35    29    24   ar
    36    16    11   ar
    37    35    32    1
    38     9    10    1
@<TRIPOS>MOLECULE
*****
 35 38 0 0 0
SMALL
GASTEIGER

@<TRIPOS>ATOM
      1 C         140.4184  141.4678  161.1021 C.ar    1  UNL1        0.1417
      2 C         141.4984  141.4447  162.1427 C.ar    1  UNL1        0.0743
      3 C         142.6137  140.4464  162.0441 C.ar    1  UNL1        0.1485
      4 C         142.6489  139.4713  160.9049 C.ar    1  UNL1        0.0422
      5 C         141.5688  139.4944  159.8643 C.ar    1  UNL1        0.0597
      6 C         140.4536  140.4927  159.9629 C.ar    1  UNL1        0.0416
      7 C         141.6039  138.5192  158.7250 C.2     1  UNL1        0.2508
      8 O         140.3278  138.0983  158.0585 O.2     1  UNL1       -0.2698
      9 N         142.9152  137.9650  158.2524 N.am    1  UNL1       -0.2644
     10 H         143.7528  138.2413  158.6898 H       1  UNL1        0.1566
     11 C         142.9503  136.9898  157.1131 C.ar    1  UNL1        0.1557
     12 C         142.7969  137.3265  155.6594 C.ar    1  UNL1        0.0564
     13 C         142.8968  136.0516  154.8754 C.ar    1  UNL1        0.0981
     14 N         143.1120  134.9270  155.8445 N.ar    1  UNL1       -0.2462
     15 C         143.2668  133.4773  155.4925 C.3     1  UNL1        0.1538
     16 N         143.1450  135.5070  157.2275 N.ar    1  UNL1       -0.1539
     17 O         139.3032  142.4661  161.2007 O.3     1  UNL1       -0.4765
     18 C         138.2892  142.3517  162.3001 C.3     1  UNL1        0.1954
     19 C         137.9565  143.5485  163.1410 C.3     1  UNL1        0.0500
     20 C         137.6080  141.0406  162.5588 C.3     1  UNL1        0.1855
     21 C         137.7102  138.5949  161.6880 C.3     1  UNL1        0.1743
     22 O         137.4398  140.0502  161.4449 O.3     1  UNL1       -0.3473
     23 O         143.6938  140.4233  163.0848 O.3     1  UNL1       -0.4534
     24 C         143.3358  140.2769  164.5341 C.ar    1  UNL1        0.1453
     25 C         143.2815  138.9143  165.1592 C.ar    1  UNL1        0.0376
     26 C         142.9236  138.7679  166.6085 C.ar    1  UNL1        0.0076
     27 C         142.6199  139.9839  167.4326 C.ar    1  UNL1        0.0538
     28 C         142.6742  141.3463  166.8075 C.ar    1  UNL1        0.0076
     29 C         143.0322  141.4928  165.3582 C.ar    1  UNL1        0.0376
     30 C         142.2619  139.8374  168.8819 C.2     1  UNL1        0.2490
     31 O         143.3194  139.4773  169.8829 O.2     1  UNL1       -0.2699
     32 N         140.8465  140.0510  169.3301 N.am    1  UNL1       -0.2760
     33 C         139.5600  140.4088  168.6468 C.3     1  UNL1        0.0955
     34 C         138.8447  140.3530  169.9641 C.3     1  UNL1        0.0430
     35 C         140.1312  139.9952  170.6474 C.3     1  UNL1        0.0955
@<TRIPOS>BOND
     1    21    22    1
     2    22    20    1
     3    20    18    1
     4    18    19    1
     5    18    17    1
     6    17     1    1
     7     1     2   ar
     8     2     3   ar
     9     3    23    1
    10    23    24    1
    11    24    25   ar
    12    25    26   ar
    13    26    27   ar
    14    27    30    1
    15    30    31    2
    16    30    32   am
    17    32    33    1
    18    33    34    1
    19    34    35    1
    20    27    28   ar
    21    28    29   ar
    22     3     4   ar
    23     4     5   ar
    24     5     7    1
    25     7     8    2
    26     7     9   am
    27     9    11    1
    28    11    12   ar
    29    12    13   ar
    30    13    14   ar
    31    14    15    1
    32    14    16   ar
    33     5     6   ar
    34     6     1   ar
    35    29    24   ar
    36    16    11   ar
    37    35    32    1
    38     9    10    1
