@<TRIPOS>MOLECULE
*****
 39 44 0 0 0
SMALL
GASTEIGER

@<TRIPOS>ATOM
      1 C         138.6530  138.3053  163.6155 C.3     1  UNL1        0.0955
      2 C         138.8571  137.2623  164.6741 C.3     1  UNL1        0.0287
      3 C         138.8100  137.6455  166.1235 C.3     1  UNL1        0.0193
      4 C         138.5588  139.0717  166.5145 C.3     1  UNL1        0.0700
      5 C         138.3547  140.1147  165.4559 C.3     1  UNL1        0.0193
      6 C         138.4018  139.7315  164.0064 C.3     1  UNL1        0.0287
      7 C         138.5758  138.9097  165.7073 C.3     1  UNL1        0.1562
      8 O         138.6184  138.5632  164.3967 O.3     1  UNL1       -0.3571
      9 N         138.5117  139.4549  167.9639 N.3     1  UNL1       -0.2919
     10 H         138.5559  138.5878  168.4993 H       1  UNL1        0.1236
     11 C         139.5567  140.3685  168.5324 C.3     1  UNL1        0.1260
     12 C         140.8718  139.8109  168.9901 C.2     1  UNL1        0.1336
     13 F         140.9944  139.2041  170.3564 F       1  UNL1       -0.2074
     14 C         142.0644  139.8600  168.0816 C.2     1  UNL1        0.0289
     15 C         141.9418  140.4668  166.7153 C.ar    1  UNL1        0.0317
     16 C         141.6887  141.9379  166.5679 C.ar    1  UNL1        0.0319
     17 C         141.5661  142.5447  165.2016 C.ar    1  UNL1        0.1403
     18 F         141.3129  144.0158  165.0543 F       1  UNL1       -0.2042
     19 C         141.6967  141.6804  163.9826 C.ar    1  UNL1        0.0319
     20 C         141.9499  140.2092  164.1301 C.ar    1  UNL1        0.0319
     21 C         142.0725  139.6024  165.4964 C.ar    1  UNL1        0.1403
     22 F         142.3256  138.1313  165.6437 F       1  UNL1       -0.2042
     23 C         138.7001  137.9221  162.1660 C.3     1  UNL1        0.0604
     24 O         137.6249  140.2663  157.7353 O.2     1  UNL1       -0.2670
     25 C         139.0965  140.0726  157.9515 C.ar    1  UNL1        0.2611
     26 C         140.0753  140.5497  156.9199 C.ar    1  UNL1        0.0623
     27 C         141.5470  140.3560  157.1361 C.ar    1  UNL1        0.0254
     28 C         142.0398  139.6852  158.3840 C.ar    1  UNL1        0.0972
     29 N         143.4329  139.3626  158.8588 N.ar    1  UNL1       -0.2400
     30 C         143.7752  138.6784  160.1491 C.ar    1  UNL1        0.1282
     31 C         142.6831  138.2560  161.0867 C.ar    1  UNL1        0.1588
     32 F         143.0254  137.5718  162.3769 F       1  UNL1       -0.2027
     33 C         141.2489  138.5179  160.7340 C.ar    1  UNL1        0.0500
     34 C         141.0610  139.2081  159.4156 C.ar    1  UNL1        0.0806
     35 N         139.5893  139.4018  159.1993 N.ar    1  UNL1       -0.2915
     36 C         138.8677  138.8313  160.3842 C.3     1  UNL1        0.1402
     37 C         139.8934  138.2851  161.3327 C.3     1  UNL1        0.1335
     38 O         140.6696  137.6629  162.4554 O.3     1  UNL1       -0.3806
     39 H         140.0557  137.3462  163.1363 H       1  UNL1        0.2108
@<TRIPOS>BOND
     1    24    25    2
     2    25    26   ar
     3    26    27   ar
     4    27    28   ar
     5    28    29   ar
     6    29    30   ar
     7    30    31   ar
     8    31    32    1
     9    31    33   ar
    10    33    34   ar
    11    34    35   ar
    12    35    36    1
    13    36    37    1
    14    37    38    1
    15    37    23    1
    16    23     1    1
    17     1     2    1
    18     2     3    1
    19     3     4    1
    20     4     9    1
    21     9    11    1
    22    11    12    1
    23    12    13    1
    24    12    14    2
    25    14    15    1
    26    15    16   ar
    27    16    17   ar
    28    17    18    1
    29    17    19   ar
    30    19    20   ar
    31    20    21   ar
    32    21    22    1
    33     4     5    1
    34     5     6    1
    35     4     7    1
    36     7     8    1
    37    35    25   ar
    38     6     1    1
    39    34    28   ar
    40     8     1    1
    41    37    33    1
    42    21    15   ar
    43    38    39    1
    44     9    10    1
@<TRIPOS>MOLECULE
*****
 39 44 0 0 0
SMALL
GASTEIGER

@<TRIPOS>ATOM
      1 C         138.6779  138.2628  163.6133 C.3     1  UNL1        0.0955
      2 C         138.4469  139.7091  163.9374 C.3     1  UNL1        0.0287
      3 C         138.3726  140.1546  165.3678 C.3     1  UNL1        0.0193
      4 C         138.5292  139.1538  166.4741 C.3     1  UNL1        0.0700
      5 C         138.7602  137.7076  166.1500 C.3     1  UNL1        0.0193
      6 C         138.8346  137.2620  164.7196 C.3     1  UNL1        0.0287
      7 C         138.5775  138.8622  165.7055 C.3     1  UNL1        0.1562
      8 O         138.6447  138.4594  164.4122 O.3     1  UNL1       -0.3571
      9 N         138.4549  139.5993  167.9045 N.3     1  UNL1       -0.2919
     10 H         137.9770  138.8594  168.4189 H       1  UNL1        0.1236
     11 C         139.7133  139.9087  168.6600 C.3     1  UNL1        0.1260
     12 C         140.2385  141.3132  168.6992 C.2     1  UNL1        0.1336
     13 F         139.6250  142.3176  169.6292 F       1  UNL1       -0.2074
     14 C         141.3770  141.7135  167.8084 C.2     1  UNL1        0.0289
     15 C         141.9905  140.7092  166.8784 C.ar    1  UNL1        0.0317
     16 C         142.7668  139.5510  167.4314 C.ar    1  UNL1        0.0319
     17 C         143.3803  138.5467  166.5014 C.ar    1  UNL1        0.1403
     18 F         144.1566  137.3886  167.0545 F       1  UNL1       -0.2042
     19 C         143.2175  138.7005  165.0182 C.ar    1  UNL1        0.0319
     20 C         142.4411  139.8588  164.4651 C.ar    1  UNL1        0.0319
     21 C         141.8276  140.8631  165.3952 C.ar    1  UNL1        0.1403
     22 F         141.0513  142.0212  164.8420 F       1  UNL1       -0.2042
     23 C         138.7522  137.8173  162.1829 C.3     1  UNL1        0.0604
     24 O         137.4838  140.4286  157.9574 O.2     1  UNL1       -0.2670
     25 C         138.9639  140.2307  158.0995 C.ar    1  UNL1        0.2611
     26 C         139.8969  140.7776  157.0601 C.ar    1  UNL1        0.0623
     27 C         141.3769  140.5797  157.2021 C.ar    1  UNL1        0.0254
     28 C         141.9240  139.8348  158.3836 C.ar    1  UNL1        0.0972
     29 N         143.3370  139.4915  158.7787 N.ar    1  UNL1       -0.2400
     30 C         143.7355  138.7297  160.0078 C.ar    1  UNL1        0.1282
     31 C         142.6852  138.2426  160.9617 C.ar    1  UNL1        0.1588
     32 F         143.0837  137.4808  162.1908 F       1  UNL1       -0.2027
     33 C         141.2365  138.5174  160.6863 C.ar    1  UNL1        0.0500
     34 C         140.9911  139.2879  159.4230 C.ar    1  UNL1        0.0806
     35 N         139.5110  139.4858  159.2809 N.ar    1  UNL1       -0.2915
     36 C         138.8417  138.8376  160.4565 C.3     1  UNL1        0.1402
     37 C         139.9082  138.2391  161.3251 C.3     1  UNL1        0.1335
     38 O         140.7330  137.5525  162.3730 O.3     1  UNL1       -0.3806
     39 H         140.1493  137.1898  163.0576 H       1  UNL1        0.2108
@<TRIPOS>BOND
     1    24    25    2
     2    25    26   ar
     3    26    27   ar
     4    27    28   ar
     5    28    29   ar
     6    29    30   ar
     7    30    31   ar
     8    31    32    1
     9    31    33   ar
    10    33    34   ar
    11    34    35   ar
    12    35    36    1
    13    36    37    1
    14    37    38    1
    15    37    23    1
    16    23     1    1
    17     1     2    1
    18     2     3    1
    19     3     4    1
    20     4     9    1
    21     9    11    1
    22    11    12    1
    23    12    13    1
    24    12    14    2
    25    14    15    1
    26    15    16   ar
    27    16    17   ar
    28    17    18    1
    29    17    19   ar
    30    19    20   ar
    31    20    21   ar
    32    21    22    1
    33     4     5    1
    34     5     6    1
    35     4     7    1
    36     7     8    1
    37    35    25   ar
    38     6     1    1
    39    34    28   ar
    40     8     1    1
    41    37    33    1
    42    21    15   ar
    43    38    39    1
    44     9    10    1
@<TRIPOS>MOLECULE
*****
 39 44 0 0 0
SMALL
GASTEIGER

@<TRIPOS>ATOM
      1 C         138.3770  141.5414  164.6959 C.3     1  UNL1        0.0955
      2 C         139.2432  142.4665  165.4984 C.3     1  UNL1        0.0287
      3 C         140.1444  141.9151  166.5632 C.3     1  UNL1        0.0193
      4 C         140.1794  140.4386  166.8255 C.3     1  UNL1        0.0700
      5 C         139.3132  139.5136  166.0231 C.3     1  UNL1        0.0193
      6 C         138.4119  140.0649  164.9582 C.3     1  UNL1        0.0287
      7 C         139.6694  140.6941  166.2316 C.3     1  UNL1        0.1562
      8 O         138.8546  141.1927  165.2688 O.3     1  UNL1       -0.3571
      9 N         141.0806  139.8872  167.8904 N.3     1  UNL1       -0.2919
     10 H         140.8312  138.9051  168.0076 H       1  UNL1        0.1236
     11 C         142.5692  139.9378  167.7131 C.3     1  UNL1        0.1260
     12 C         143.2711  138.8530  166.9512 C.2     1  UNL1        0.1336
     13 F         143.6883  137.5939  167.6517 F       1  UNL1       -0.2074
     14 C         143.5558  139.0272  165.4888 C.2     1  UNL1        0.0289
     15 C         143.1386  140.2863  164.7883 C.ar    1  UNL1        0.0317
     16 C         143.7436  141.6005  165.1841 C.ar    1  UNL1        0.0319
     17 C         143.3264  142.8596  164.4836 C.ar    1  UNL1        0.1403
     18 F         143.9315  144.1738  164.8794 F       1  UNL1       -0.2042
     19 C         142.3042  142.8044  163.3872 C.ar    1  UNL1        0.0319
     20 C         141.6992  141.4900  162.9914 C.ar    1  UNL1        0.0319
     21 C         142.1164  140.2310  163.6919 C.ar    1  UNL1        0.1403
     22 F         141.5114  138.9168  163.2960 F       1  UNL1       -0.2042
     23 C         137.4758  142.0928  163.6311 C.3     1  UNL1        0.0604
     24 O         140.3698  146.0636  162.1682 O.2     1  UNL1       -0.2670
     25 C         140.1159  145.0860  161.0592 C.ar    1  UNL1        0.2611
     26 C         140.6921  145.3316  159.6963 C.ar    1  UNL1        0.0623
     27 C         140.4381  144.3540  158.5873 C.ar    1  UNL1        0.0254
     28 C         139.6080  143.1308  158.8413 C.ar    1  UNL1        0.0972
     29 N         139.1963  141.9994  157.9352 N.ar    1  UNL1       -0.2400
     30 C         138.3513  140.8271  158.3370 C.ar    1  UNL1        0.1282
     31 C         137.8436  140.7156  159.7441 C.ar    1  UNL1        0.1588
     32 F         136.9986  139.5433  160.1458 F       1  UNL1       -0.2027
     33 C         138.1811  141.7765  160.7494 C.ar    1  UNL1        0.0500
     34 C         139.0318  142.8852  160.2042 C.ar    1  UNL1        0.0806
     35 N         139.2858  143.8628  161.3132 N.ar    1  UNL1       -0.2915
     36 C         138.5920  143.3583  162.5437 C.3     1  UNL1        0.1402
     37 C         137.9093  142.0689  162.1953 C.3     1  UNL1        0.1335
     38 O         137.1359  140.7845  162.1470 O.3     1  UNL1       -0.3806
     39 H         136.7530  140.6046  163.0199 H       1  UNL1        0.2108
@<TRIPOS>BOND
     1    24    25    2
     2    25    26   ar
     3    26    27   ar
     4    27    28   ar
     5    28    29   ar
     6    29    30   ar
     7    30    31   ar
     8    31    32    1
     9    31    33   ar
    10    33    34   ar
    11    34    35   ar
    12    35    36    1
    13    36    37    1
    14    37    38    1
    15    37    23    1
    16    23     1    1
    17     1     2    1
    18     2     3    1
    19     3     4    1
    20     4     9    1
    21     9    11    1
    22    11    12    1
    23    12    13    1
    24    12    14    2
    25    14    15    1
    26    15    16   ar
    27    16    17   ar
    28    17    18    1
    29    17    19   ar
    30    19    20   ar
    31    20    21   ar
    32    21    22    1
    33     4     5    1
    34     5     6    1
    35     4     7    1
    36     7     8    1
    37    35    25   ar
    38     6     1    1
    39    34    28   ar
    40     8     1    1
    41    37    33    1
    42    21    15   ar
    43    38    39    1
    44     9    10    1
@<TRIPOS>MOLECULE
*****
 39 44 0 0 0
SMALL
GASTEIGER

@<TRIPOS>ATOM
      1 C         138.7635  138.9821  164.1773 C.3     1  UNL1        0.0955
      2 C         138.1312  140.2998  163.8394 C.3     1  UNL1        0.0287
      3 C         137.6165  140.5512  162.4531 C.3     1  UNL1        0.0193
      4 C         137.7340  139.4850  161.4046 C.3     1  UNL1        0.0700
      5 C         138.3662  138.1674  161.7424 C.3     1  UNL1        0.0193
      6 C         138.8810  137.9159  163.1288 C.3     1  UNL1        0.0287
      7 C         138.0306  139.3009  162.1504 C.3     1  UNL1        0.1562
      8 O         138.4960  139.0736  163.4039 O.3     1  UNL1       -0.3571
      9 N         137.2193  139.7364  160.0183 N.3     1  UNL1       -0.2919
     10 H         136.5007  140.4560  160.0970 H       1  UNL1        0.1236
     11 C         138.1603  140.1805  158.9380 C.3     1  UNL1        0.1260
     12 C         138.7802  141.5452  158.9976 C.2     1  UNL1        0.1336
     13 F         137.9766  142.7514  158.6111 F       1  UNL1       -0.2074
     14 C         140.2035  141.7038  159.4437 C.2     1  UNL1        0.0289
     15 C         141.0071  140.4976  159.8303 C.ar    1  UNL1        0.0317
     16 C         141.4570  139.5275  158.7784 C.ar    1  UNL1        0.0319
     17 C         142.2606  138.3214  159.1649 C.ar    1  UNL1        0.1403
     18 F         142.7105  137.3514  158.1130 F       1  UNL1       -0.2042
     19 C         142.6143  138.0853  160.6034 C.ar    1  UNL1        0.0319
     20 C         142.1643  139.0554  161.6553 C.ar    1  UNL1        0.0319
     21 C         141.3607  140.2616  161.2688 C.ar    1  UNL1        0.1403
     22 F         140.9108  141.2316  162.3207 F       1  UNL1       -0.2042
     23 C         139.2782  138.7307  165.5636 C.3     1  UNL1        0.0604
     24 O         138.0813  140.0895  170.3598 O.2     1  UNL1       -0.2670
     25 C         139.3276  140.7562  169.8576 C.ar    1  UNL1        0.2611
     26 C         140.0778  141.7073  170.7421 C.ar    1  UNL1        0.0623
     27 C         141.3242  142.3740  170.2399 C.ar    1  UNL1        0.0254
     28 C         141.8203  142.0894  168.8533 C.ar    1  UNL1        0.0972
     29 N         143.0183  142.6038  168.0978 N.ar    1  UNL1       -0.2400
     30 C         143.3912  142.2231  166.6957 C.ar    1  UNL1        0.1282
     31 C         142.5399  141.2541  165.9300 C.ar    1  UNL1        0.1588
     32 F         142.9129  140.8735  164.5279 F       1  UNL1       -0.2027
     33 C         141.3157  140.6657  166.5665 C.ar    1  UNL1        0.0500
     34 C         141.0701  141.1382  167.9688 C.ar    1  UNL1        0.0806
     35 N         139.8238  140.4716  168.4710 N.ar    1  UNL1       -0.2915
     36 C         139.2991  139.5871  167.3790 C.3     1  UNL1        0.1402
     37 C         140.2212  139.7070  166.2020 C.3     1  UNL1        0.1335
     38 O         140.9462  139.6228  164.8916 O.3     1  UNL1       -0.3806
     39 H         140.4779  139.0116  164.3016 H       1  UNL1        0.2108
@<TRIPOS>BOND
     1    24    25    2
     2    25    26   ar
     3    26    27   ar
     4    27    28   ar
     5    28    29   ar
     6    29    30   ar
     7    30    31   ar
     8    31    32    1
     9    31    33   ar
    10    33    34   ar
    11    34    35   ar
    12    35    36    1
    13    36    37    1
    14    37    38    1
    15    37    23    1
    16    23     1    1
    17     1     2    1
    18     2     3    1
    19     3     4    1
    20     4     9    1
    21     9    11    1
    22    11    12    1
    23    12    13    1
    24    12    14    2
    25    14    15    1
    26    15    16   ar
    27    16    17   ar
    28    17    18    1
    29    17    19   ar
    30    19    20   ar
    31    20    21   ar
    32    21    22    1
    33     4     5    1
    34     5     6    1
    35     4     7    1
    36     7     8    1
    37    35    25   ar
    38     6     1    1
    39    34    28   ar
    40     8     1    1
    41    37    33    1
    42    21    15   ar
    43    38    39    1
    44     9    10    1
@<TRIPOS>MOLECULE
*****
 39 44 0 0 0
SMALL
GASTEIGER

@<TRIPOS>ATOM
      1 C         141.0852  143.3246  164.9529 C.3     1  UNL1        0.0955
      2 C         141.8921  142.4933  165.9058 C.3     1  UNL1        0.0287
      3 C         141.2486  141.3515  166.6353 C.3     1  UNL1        0.0193
      4 C         139.7982  141.0409  166.4119 C.3     1  UNL1        0.0700
      5 C         138.9914  141.8722  165.4591 C.3     1  UNL1        0.0193
      6 C         139.6348  143.0140  164.7295 C.3     1  UNL1        0.0287
      7 C         140.1070  141.6767  165.9893 C.3     1  UNL1        0.1562
      8 O         140.6888  142.7091  165.3298 O.3     1  UNL1       -0.3571
      9 N         139.1547  139.8990  167.1414 N.3     1  UNL1       -0.2919
     10 H         138.8047  140.2730  168.0234 H       1  UNL1        0.1236
     11 C         138.0204  139.1489  166.5085 C.3     1  UNL1        0.1260
     12 C         138.1749  137.6937  166.1788 C.2     1  UNL1        0.1336
     13 F         137.5390  136.6548  167.0541 F       1  UNL1       -0.2074
     14 C         138.9654  137.2775  164.9738 C.2     1  UNL1        0.0289
     15 C         139.6013  138.3164  164.0985 C.ar    1  UNL1        0.0317
     16 C         138.7629  139.0962  163.1295 C.ar    1  UNL1        0.0319
     17 C         139.3988  140.1352  162.2542 C.ar    1  UNL1        0.1403
     18 F         138.5603  140.9149  161.2853 F       1  UNL1       -0.2042
     19 C         140.8733  140.3944  162.3479 C.ar    1  UNL1        0.0319
     20 C         141.7118  139.6145  163.3169 C.ar    1  UNL1        0.0319
     21 C         141.0758  138.5756  164.1922 C.ar    1  UNL1        0.1403
     22 F         141.9143  137.7958  165.1611 F       1  UNL1       -0.2042
     23 C         141.7287  144.4665  164.2234 C.3     1  UNL1        0.0604
     24 O         145.1374  141.5773  161.7102 O.2     1  UNL1       -0.2670
     25 C         144.2355  142.3482  160.7924 C.ar    1  UNL1        0.2611
     26 C         144.3921  142.2210  159.3060 C.ar    1  UNL1        0.0623
     27 C         143.4903  142.9919  158.3882 C.ar    1  UNL1        0.0254
     28 C         142.4318  143.8899  158.9567 C.ar    1  UNL1        0.0972
     29 N         141.4042  144.7667  158.2891 N.ar    1  UNL1       -0.2400
     30 C         140.3965  145.6209  158.9996 C.ar    1  UNL1        0.1282
     31 C         140.3591  145.6466  160.4989 C.ar    1  UNL1        0.1588
     32 F         139.3514  146.5008  161.2094 F       1  UNL1       -0.2027
     33 C         141.3293  144.8181  161.2877 C.ar    1  UNL1        0.0500
     34 C         142.2752  144.0170  160.4430 C.ar    1  UNL1        0.0806
     35 N         143.1771  143.2462  161.3609 N.ar    1  UNL1       -0.2915
     36 C         142.7885  143.5709  162.7728 C.3     1  UNL1        0.1402
     37 C         141.6466  144.5424  162.7276 C.3     1  UNL1        0.1335
     38 O         140.5218  145.4980  162.9951 O.3     1  UNL1       -0.3806
     39 H         140.4017  145.5963  163.9526 H       1  UNL1        0.2108
@<TRIPOS>BOND
     1    24    25    2
     2    25    26   ar
     3    26    27   ar
     4    27    28   ar
     5    28    29   ar
     6    29    30   ar
     7    30    31   ar
     8    31    32    1
     9    31    33   ar
    10    33    34   ar
    11    34    35   ar
    12    35    36    1
    13    36    37    1
    14    37    38    1
    15    37    23    1
    16    23     1    1
    17     1     2    1
    18     2     3    1
    19     3     4    1
    20     4     9    1
    21     9    11    1
    22    11    12    1
    23    12    13    1
    24    12    14    2
    25    14    15    1
    26    15    16   ar
    27    16    17   ar
    28    17    18    1
    29    17    19   ar
    30    19    20   ar
    31    20    21   ar
    32    21    22    1
    33     4     5    1
    34     5     6    1
    35     4     7    1
    36     7     8    1
    37    35    25   ar
    38     6     1    1
    39    34    28   ar
    40     8     1    1
    41    37    33    1
    42    21    15   ar
    43    38    39    1
    44     9    10    1
@<TRIPOS>MOLECULE
*****
 39 44 0 0 0
SMALL
GASTEIGER

@<TRIPOS>ATOM
      1 C         138.4918  139.0387  164.7136 C.3     1  UNL1        0.0955
      2 C         137.8386  140.3731  164.5059 C.3     1  UNL1        0.0287
      3 C         137.5753  140.8710  163.1157 C.3     1  UNL1        0.0193
      4 C         137.9651  140.0346  161.9331 C.3     1  UNL1        0.0700
      5 C         138.6183  138.7004  162.1407 C.3     1  UNL1        0.0193
      6 C         138.8816  138.2024  163.5310 C.3     1  UNL1        0.0287
      7 C         138.1297  139.7196  162.6759 C.3     1  UNL1        0.1562
      8 O         138.3677  139.2694  163.9329 O.3     1  UNL1       -0.3571
      9 N         137.7018  140.5325  160.5428 N.3     1  UNL1       -0.2919
     10 H         136.7580  140.9192  160.5424 H       1  UNL1        0.1236
     11 C         138.5964  141.5730  159.9369 C.3     1  UNL1        0.1260
     12 C         140.0753  141.3356  159.8560 C.2     1  UNL1        0.1336
     13 F         140.6273  140.3835  158.8368 F       1  UNL1       -0.2074
     14 C         141.0021  142.0503  160.7942 C.2     1  UNL1        0.0289
     15 C         140.4501  143.0024  161.8134 C.ar    1  UNL1        0.0317
     16 C         140.4555  142.6315  163.2667 C.ar    1  UNL1        0.0319
     17 C         139.9035  143.5836  164.2859 C.ar    1  UNL1        0.1403
     18 F         139.9089  143.2126  165.7393 F       1  UNL1       -0.2042
     19 C         139.3460  144.9067  163.8517 C.ar    1  UNL1        0.0319
     20 C         139.3405  145.2776  162.3982 C.ar    1  UNL1        0.0319
     21 C         139.8926  144.3255  161.3791 C.ar    1  UNL1        0.1403
     22 F         139.8871  144.6966  159.9257 F       1  UNL1       -0.2042
     23 C         138.7551  138.5408  166.1038 C.3     1  UNL1        0.0604
     24 O         143.1167  140.8063  164.6456 O.2     1  UNL1       -0.2670
     25 C         142.6943  141.1905  166.0327 C.ar    1  UNL1        0.2611
     26 C         143.5284  142.1465  166.8330 C.ar    1  UNL1        0.0623
     27 C         143.1060  142.5307  168.2201 C.ar    1  UNL1        0.0254
     28 C         141.8496  141.9589  168.8069 C.ar    1  UNL1        0.0972
     29 N         141.1935  142.1615  170.1481 N.ar    1  UNL1       -0.2400
     30 C         139.9191  141.5120  170.5997 C.ar    1  UNL1        0.1282
     31 C         139.1909  140.5726  169.6847 C.ar    1  UNL1        0.1588
     32 F         137.9165  139.9230  170.1363 F       1  UNL1       -0.2027
     33 C         139.7371  140.2827  168.3181 C.ar    1  UNL1        0.0500
     34 C         141.0156  141.0029  168.0067 C.ar    1  UNL1        0.0806
     35 N         141.4379  140.6187  166.6196 N.ar    1  UNL1       -0.2915
     36 C         140.4205  139.6611  166.0738 C.3     1  UNL1        0.1402
     37 C         139.3694  139.4534  167.1235 C.3     1  UNL1        0.1335
     38 O         138.1898  139.0550  167.9601 O.3     1  UNL1       -0.3806
     39 H         137.6346  138.4351  167.4617 H       1  UNL1        0.2108
@<TRIPOS>BOND
     1    24    25    2
     2    25    26   ar
     3    26    27   ar
     4    27    28   ar
     5    28    29   ar
     6    29    30   ar
     7    30    31   ar
     8    31    32    1
     9    31    33   ar
    10    33    34   ar
    11    34    35   ar
    12    35    36    1
    13    36    37    1
    14    37    38    1
    15    37    23    1
    16    23     1    1
    17     1     2    1
    18     2     3    1
    19     3     4    1
    20     4     9    1
    21     9    11    1
    22    11    12    1
    23    12    13    1
    24    12    14    2
    25    14    15    1
    26    15    16   ar
    27    16    17   ar
    28    17    18    1
    29    17    19   ar
    30    19    20   ar
    31    20    21   ar
    32    21    22    1
    33     4     5    1
    34     5     6    1
    35     4     7    1
    36     7     8    1
    37    35    25   ar
    38     6     1    1
    39    34    28   ar
    40     8     1    1
    41    37    33    1
    42    21    15   ar
    43    38    39    1
    44     9    10    1
@<TRIPOS>MOLECULE
*****
 39 44 0 0 0
SMALL
GASTEIGER

@<TRIPOS>ATOM
      1 C         142.9402  138.8871  163.1112 C.3     1  UNL1        0.0955
      2 C         141.7573  138.5247  163.9595 C.3     1  UNL1        0.0287
      3 C         141.8939  138.4682  165.4522 C.3     1  UNL1        0.0193
      4 C         143.2134  138.7741  166.0967 C.3     1  UNL1        0.0700
      5 C         144.3962  139.1364  165.2485 C.3     1  UNL1        0.0193
      6 C         144.2597  139.1930  163.7557 C.3     1  UNL1        0.0287
      7 C         143.1872  138.8180  165.2748 C.3     1  UNL1        0.1562
      8 O         143.0636  138.8691  163.9251 O.3     1  UNL1       -0.3571
      9 N         143.3500  138.7176  167.5894 N.3     1  UNL1       -0.2919
     10 H         144.3104  138.9832  167.8074 H       1  UNL1        0.1236
     11 C         142.4606  139.5588  168.4562 C.3     1  UNL1        0.1260
     12 C         142.9750  140.8434  169.0353 C.2     1  UNL1        0.1336
     13 F         143.6720  140.8412  170.3635 F       1  UNL1       -0.2074
     14 C         142.7924  142.1300  168.2862 C.2     1  UNL1        0.0289
     15 C         142.0955  142.1321  166.9579 C.ar    1  UNL1        0.0317
     16 C         140.6361  141.7955  166.8762 C.ar    1  UNL1        0.0319
     17 C         139.9391  141.7976  165.5479 C.ar    1  UNL1        0.1403
     18 F         138.4797  141.4609  165.4662 F       1  UNL1       -0.2042
     19 C         140.7016  142.1364  164.3014 C.ar    1  UNL1        0.0319
     20 C         142.1611  142.4731  164.3832 C.ar    1  UNL1        0.0319
     21 C         142.8580  142.4710  165.7114 C.ar    1  UNL1        0.1403
     22 F         144.3175  142.8077  165.7931 F       1  UNL1       -0.2042
     23 C         142.8036  138.9435  161.6185 C.3     1  UNL1        0.0604
     24 O         143.5587  144.0067  161.3417 O.2     1  UNL1       -0.2670
     25 C         142.2361  143.5816  160.7760 C.ar    1  UNL1        0.2611
     26 C         141.2983  144.6063  160.2100 C.ar    1  UNL1        0.0623
     27 C         139.9756  144.1812  159.6444 C.ar    1  UNL1        0.0254
     28 C         139.5908  142.7315  159.6448 C.ar    1  UNL1        0.0972
     29 N         138.3521  142.0285  159.1530 N.ar    1  UNL1       -0.2400
     30 C         138.1058  140.5505  159.2217 C.ar    1  UNL1        0.1282
     31 C         139.1416  139.6446  159.8188 C.ar    1  UNL1        0.1588
     32 F         138.8953  138.1665  159.8875 F       1  UNL1       -0.2027
     33 C         140.4236  140.2167  160.3471 C.ar    1  UNL1        0.0500
     34 C         140.5286  141.7068  160.2109 C.ar    1  UNL1        0.0806
     35 N         141.8513  142.1319  160.7765 N.ar    1  UNL1       -0.2915
     36 C         142.5636  140.9045  161.2623 C.3     1  UNL1        0.1402
     37 C         141.6813  139.7208  160.9970 C.3     1  UNL1        0.1335
     38 O         141.0335  138.3747  160.8616 O.3     1  UNL1       -0.3806
     39 H         141.6234  137.6943  161.2221 H       1  UNL1        0.2108
@<TRIPOS>BOND
     1    24    25    2
     2    25    26   ar
     3    26    27   ar
     4    27    28   ar
     5    28    29   ar
     6    29    30   ar
     7    30    31   ar
     8    31    32    1
     9    31    33   ar
    10    33    34   ar
    11    34    35   ar
    12    35    36    1
    13    36    37    1
    14    37    38    1
    15    37    23    1
    16    23     1    1
    17     1     2    1
    18     2     3    1
    19     3     4    1
    20     4     9    1
    21     9    11    1
    22    11    12    1
    23    12    13    1
    24    12    14    2
    25    14    15    1
    26    15    16   ar
    27    16    17   ar
    28    17    18    1
    29    17    19   ar
    30    19    20   ar
    31    20    21   ar
    32    21    22    1
    33     4     5    1
    34     5     6    1
    35     4     7    1
    36     7     8    1
    37    35    25   ar
    38     6     1    1
    39    34    28   ar
    40     8     1    1
    41    37    33    1
    42    21    15   ar
    43    38    39    1
    44     9    10    1
@<TRIPOS>MOLECULE
*****
 39 44 0 0 0
SMALL
GASTEIGER

@<TRIPOS>ATOM
      1 C         139.6093  141.1625  160.6382 C.3     1  UNL1        0.0955
      2 C         138.2260  140.6293  160.8674 C.3     1  UNL1        0.0287
      3 C         137.6740  140.5500  162.2598 C.3     1  UNL1        0.0193
      4 C         138.5051  141.0038  163.4231 C.3     1  UNL1        0.0700
      5 C         139.8883  141.5370  163.1939 C.3     1  UNL1        0.0193
      6 C         140.4405  141.6163  161.8014 C.3     1  UNL1        0.0287
      7 C         138.8507  141.0665  162.6783 C.3     1  UNL1        0.1562
      8 O         139.3498  141.1382  161.4192 O.3     1  UNL1       -0.3571
      9 N         137.9531  140.9246  164.8156 N.3     1  UNL1       -0.2919
     10 H         137.0084  140.5479  164.7368 H       1  UNL1        0.1236
     11 C         138.6594  140.1081  165.8569 C.3     1  UNL1        0.1260
     12 C         138.1859  138.7196  166.1697 C.2     1  UNL1        0.1336
     13 F         137.0800  138.5099  167.1612 F       1  UNL1       -0.2074
     14 C         138.8182  137.5407  165.4911 C.2     1  UNL1        0.0289
     15 C         139.9240  137.7504  164.4996 C.ar    1  UNL1        0.0317
     16 C         141.3073  138.0794  164.9773 C.ar    1  UNL1        0.0319
     17 C         142.4132  138.2891  163.9857 C.ar    1  UNL1        0.1403
     18 F         143.7965  138.6181  164.4635 F       1  UNL1       -0.2042
     19 C         142.1358  138.1698  162.5165 C.ar    1  UNL1        0.0319
     20 C         140.7524  137.8407  162.0388 C.ar    1  UNL1        0.0319
     21 C         139.6465  137.6311  163.0303 C.ar    1  UNL1        0.1403
     22 F         138.2633  137.3021  162.5525 F       1  UNL1       -0.2042
     23 C         140.1614  141.2417  159.2457 C.3     1  UNL1        0.0604
     24 O         137.1323  139.7115  155.4031 O.2     1  UNL1       -0.2670
     25 C         138.3125  138.8094  155.6113 C.ar    1  UNL1        0.2611
     26 C         138.5015  137.6071  154.7345 C.ar    1  UNL1        0.0623
     27 C         139.6817  136.7050  154.9427 C.ar    1  UNL1        0.0254
     28 C         140.6729  137.0052  156.0276 C.ar    1  UNL1        0.0972
     29 N         141.9272  136.2897  156.4581 N.ar    1  UNL1       -0.2400
     30 C         142.8304  136.7153  157.5775 C.ar    1  UNL1        0.1282
     31 C         142.5115  137.9473  158.3714 C.ar    1  UNL1        0.1588
     32 F         143.4147  138.3728  159.4908 F       1  UNL1       -0.2027
     33 C         141.2893  138.7538  158.0459 C.ar    1  UNL1        0.0500
     34 C         140.4840  138.2075  156.9044 C.ar    1  UNL1        0.0806
     35 N         139.3038  139.1096  156.6962 N.ar    1  UNL1       -0.2915
     36 C         139.3797  140.2134  157.7091 C.3     1  UNL1        0.1402
     37 C         140.6068  139.9935  158.5433 C.3     1  UNL1        0.1335
     38 O         141.7408  140.0345  159.5243 O.3     1  UNL1       -0.3806
     39 H         141.6395  140.8060  160.1035 H       1  UNL1        0.2108
@<TRIPOS>BOND
     1    24    25    2
     2    25    26   ar
     3    26    27   ar
     4    27    28   ar
     5    28    29   ar
     6    29    30   ar
     7    30    31   ar
     8    31    32    1
     9    31    33   ar
    10    33    34   ar
    11    34    35   ar
    12    35    36    1
    13    36    37    1
    14    37    38    1
    15    37    23    1
    16    23     1    1
    17     1     2    1
    18     2     3    1
    19     3     4    1
    20     4     9    1
    21     9    11    1
    22    11    12    1
    23    12    13    1
    24    12    14    2
    25    14    15    1
    26    15    16   ar
    27    16    17   ar
    28    17    18    1
    29    17    19   ar
    30    19    20   ar
    31    20    21   ar
    32    21    22    1
    33     4     5    1
    34     5     6    1
    35     4     7    1
    36     7     8    1
    37    35    25   ar
    38     6     1    1
    39    34    28   ar
    40     8     1    1
    41    37    33    1
    42    21    15   ar
    43    38    39    1
    44     9    10    1
@<TRIPOS>MOLECULE
*****
 39 44 0 0 0
SMALL
GASTEIGER

@<TRIPOS>ATOM
      1 C         138.9938  139.5358  164.2983 C.3     1  UNL1        0.0955
      2 C         138.5271  138.3745  165.1253 C.3     1  UNL1        0.0287
      3 C         138.5533  138.4615  166.6226 C.3     1  UNL1        0.0193
      4 C         139.0461  139.7097  167.2928 C.3     1  UNL1        0.0700
      5 C         139.5127  140.8708  166.4658 C.3     1  UNL1        0.0193
      6 C         139.4865  140.7839  164.9685 C.3     1  UNL1        0.0287
      7 C         139.0504  139.7088  166.4694 C.3     1  UNL1        0.1562
      8 O         139.0267  139.6302  165.1156 O.3     1  UNL1       -0.3571
      9 N         139.0723  139.7967  168.7901 N.3     1  UNL1       -0.2919
     10 H         139.4420  138.9090  169.1302 H       1  UNL1        0.1236
     11 C         139.8596  140.8807  169.4646 C.3     1  UNL1        0.1260
     12 C         140.9664  140.5248  170.4124 C.2     1  UNL1        0.1336
     13 F         140.6889  140.4159  171.8825 F       1  UNL1       -0.2074
     14 C         142.3507  140.2779  169.8902 C.2     1  UNL1        0.0289
     15 C         142.6282  140.3868  168.4201 C.ar    1  UNL1        0.0317
     16 C         142.6720  139.1508  167.5715 C.ar    1  UNL1        0.0319
     17 C         142.9495  139.2597  166.1014 C.ar    1  UNL1        0.1403
     18 F         142.9933  138.0236  165.2528 F       1  UNL1       -0.2042
     19 C         143.1832  140.6048  165.4799 C.ar    1  UNL1        0.0319
     20 C         143.1395  141.8409  166.3286 C.ar    1  UNL1        0.0319
     21 C         142.8619  141.7319  167.7987 C.ar    1  UNL1        0.1403
     22 F         142.8182  142.9680  168.6473 F       1  UNL1       -0.2042
     23 C         138.9676  139.4488  162.8010 C.3     1  UNL1        0.0604
     24 O         138.8408  143.3949  159.5308 O.2     1  UNL1       -0.2670
     25 C         140.1520  142.6665  159.5167 C.ar    1  UNL1        0.2611
     26 C         141.2528  143.1211  158.6048 C.ar    1  UNL1        0.0623
     27 C         142.5639  142.3927  158.5906 C.ar    1  UNL1        0.0254
     28 C         142.7743  141.2096  159.4883 C.ar    1  UNL1        0.0972
     29 N         143.9630  140.3041  159.6824 N.ar    1  UNL1       -0.2400
     30 C         144.0267  139.1440  160.6311 C.ar    1  UNL1        0.1282
     31 C         142.8401  138.8072  161.4847 C.ar    1  UNL1        0.1588
     32 F         142.9038  137.6471  162.4334 F       1  UNL1       -0.2027
     33 C         141.5898  139.6305  161.3895 C.ar    1  UNL1        0.0500
     34 C         141.6736  140.7549  160.4002 C.ar    1  UNL1        0.0806
     35 N         140.3624  141.4834  160.4144 N.ar    1  UNL1       -0.2915
     36 C         139.4684  140.8092  161.4124 C.3     1  UNL1        0.1402
     37 C         140.2269  139.6640  162.0151 C.3     1  UNL1        0.1335
     38 O         140.7223  138.4739  162.7821 O.3     1  UNL1       -0.3806
     39 H         140.0253  138.1617  163.3801 H       1  UNL1        0.2108
@<TRIPOS>BOND
     1    24    25    2
     2    25    26   ar
     3    26    27   ar
     4    27    28   ar
     5    28    29   ar
     6    29    30   ar
     7    30    31   ar
     8    31    32    1
     9    31    33   ar
    10    33    34   ar
    11    34    35   ar
    12    35    36    1
    13    36    37    1
    14    37    38    1
    15    37    23    1
    16    23     1    1
    17     1     2    1
    18     2     3    1
    19     3     4    1
    20     4     9    1
    21     9    11    1
    22    11    12    1
    23    12    13    1
    24    12    14    2
    25    14    15    1
    26    15    16   ar
    27    16    17   ar
    28    17    18    1
    29    17    19   ar
    30    19    20   ar
    31    20    21   ar
    32    21    22    1
    33     4     5    1
    34     5     6    1
    35     4     7    1
    36     7     8    1
    37    35    25   ar
    38     6     1    1
    39    34    28   ar
    40     8     1    1
    41    37    33    1
    42    21    15   ar
    43    38    39    1
    44     9    10    1
