@<TRIPOS>MOLECULE
*****
 29 33 0 0 0
SMALL
GASTEIGER

@<TRIPOS>ATOM
      1 C         141.2881  139.0756  165.0129 C.ar    1  UNL1        0.0681
      2 C         141.9019  139.8059  163.8554 C.ar    1  UNL1        0.0208
      3 C         141.6395  139.3439  162.4527 C.ar    1  UNL1        0.0384
      4 C         140.7631  138.1515  162.2076 C.ar    1  UNL1        0.1385
      5 C         140.1492  137.4212  163.3651 C.ar    1  UNL1        0.0384
      6 C         140.4117  137.8832  164.7677 C.ar    1  UNL1        0.0208
      7 C         143.7151  138.1023  166.4834 C.3     1  UNL1        0.0723
      8 C         142.7641  139.0511  167.1509 C.ar    1  UNL1        0.1268
      9 N         143.0266  139.5132  168.5535 N.ar    1  UNL1       -0.2318
     10 C         142.0757  140.4620  169.2210 C.ar    1  UNL1        0.0872
     11 C         142.3382  140.9241  170.6237 C.ar    1  UNL1        0.0193
     12 C         141.3872  141.8729  171.2911 C.ar    1  UNL1        0.0015
     13 C         140.1738  142.3596  170.5559 C.ar    1  UNL1        0.0003
     14 C         139.9112  141.8975  169.1532 C.ar    1  UNL1        0.0063
     15 C         140.8622  140.9487  168.4858 C.ar    1  UNL1        0.0742
     16 C         140.5996  140.4865  167.0831 C.ar    1  UNL1        0.2669
     17 O         139.3861  140.9732  166.3478 O.2     1  UNL1       -0.2665
     18 N         141.5506  139.5378  166.4156 N.ar    1  UNL1       -0.2626
     19 O         140.5006  137.6893  160.8048 O.3     1  UNL1       -0.4791
     20 C         139.7066  138.5504  159.8677 C.3     1  UNL1        0.1687
     21 C         140.0652  138.6033  158.4121 C.3     1  UNL1        0.0609
     22 C         139.2712  139.4644  157.4750 C.3     1  UNL1        0.0758
     23 N         138.1187  140.2725  157.9935 N.3     1  UNL1       -0.2737
     24 C         137.7602  140.2196  159.4491 C.3     1  UNL1        0.0758
     25 C         138.5542  139.3585  160.3862 C.3     1  UNL1        0.0609
     26 C         137.3247  141.1336  157.0564 C.3     1  UNL1        0.0575
     27 C         136.1310  140.9198  156.1735 C.3     1  UNL1        0.0160
     28 C         136.2019  142.3513  155.7311 C.3     1  UNL1        0.0028
     29 C         137.3955  142.5651  156.6139 C.3     1  UNL1        0.0160
@<TRIPOS>BOND
     1     7     8    1
     2     8     9   ar
     3     9    10   ar
     4    10    11   ar
     5    11    12   ar
     6    12    13   ar
     7    13    14   ar
     8    14    15   ar
     9    15    16   ar
    10    16    17    2
    11    16    18   ar
    12    18     1    1
    13     1     2   ar
    14     2     3   ar
    15     3     4   ar
    16     4    19    1
    17    19    20    1
    18    20    21    1
    19    21    22    1
    20    22    23    1
    21    23    26    1
    22    26    27    1
    23    27    28    1
    24    28    29    1
    25    23    24    1
    26    24    25    1
    27     4     5   ar
    28     5     6   ar
    29    18     8   ar
    30     6     1   ar
    31    15    10   ar
    32    25    20    1
    33    29    26    1
@<TRIPOS>MOLECULE
*****
 29 33 0 0 0
SMALL
GASTEIGER

@<TRIPOS>ATOM
      1 C         138.9765  140.5809  164.7708 C.ar    1  UNL1        0.0681
      2 C         137.8042  141.3604  164.2530 C.ar    1  UNL1        0.0208
      3 C         137.4687  141.3281  162.7914 C.ar    1  UNL1        0.0384
      4 C         138.3055  140.5164  161.8476 C.ar    1  UNL1        0.1385
      5 C         139.4778  139.7369  162.3654 C.ar    1  UNL1        0.0384
      6 C         139.8133  139.7692  163.8270 C.ar    1  UNL1        0.0208
      7 C         137.8924  138.4694  166.6056 C.3     1  UNL1        0.0723
      8 C         138.7699  139.5575  167.1499 C.ar    1  UNL1        0.1268
      9 N         139.1054  139.5897  168.6115 N.ar    1  UNL1       -0.2318
     10 C         139.9829  140.6778  169.1558 C.ar    1  UNL1        0.0872
     11 C         140.3183  140.7100  170.6175 C.ar    1  UNL1        0.0193
     12 C         141.1958  141.7980  171.1617 C.ar    1  UNL1        0.0015
     13 C         141.7378  142.8538  170.2443 C.ar    1  UNL1        0.0003
     14 C         141.4024  142.8215  168.7827 C.ar    1  UNL1        0.0063
     15 C         140.5249  141.7335  168.2385 C.ar    1  UNL1        0.0742
     16 C         140.1894  141.7012  166.7768 C.ar    1  UNL1        0.2669
     17 O         140.7315  142.7570  165.8594 O.2     1  UNL1       -0.2665
     18 N         139.3120  140.6132  166.2325 N.ar    1  UNL1       -0.2626
     19 O         137.9700  140.4841  160.3859 O.3     1  UNL1       -0.4791
     20 C         138.4500  141.5806  159.4819 C.3     1  UNL1        0.1687
     21 C         139.3099  142.6813  160.0290 C.3     1  UNL1        0.0609
     22 C         139.7899  143.7778  159.1249 C.3     1  UNL1        0.0758
     23 N         139.4100  143.7736  157.6738 N.3     1  UNL1       -0.2737
     24 C         138.5502  142.6730  157.1267 C.3     1  UNL1        0.0758
     25 C         138.0702  141.5765  158.0308 C.3     1  UNL1        0.0609
     26 C         139.8900  144.8701  156.7697 C.3     1  UNL1        0.0575
     27 C         140.0743  146.3526  156.9057 C.3     1  UNL1        0.0160
     28 C         140.5688  146.4208  155.4912 C.3     1  UNL1        0.0028
     29 C         140.3846  144.9384  155.3553 C.3     1  UNL1        0.0160
@<TRIPOS>BOND
     1     7     8    1
     2     8     9   ar
     3     9    10   ar
     4    10    11   ar
     5    11    12   ar
     6    12    13   ar
     7    13    14   ar
     8    14    15   ar
     9    15    16   ar
    10    16    17    2
    11    16    18   ar
    12    18     1    1
    13     1     2   ar
    14     2     3   ar
    15     3     4   ar
    16     4    19    1
    17    19    20    1
    18    20    21    1
    19    21    22    1
    20    22    23    1
    21    23    26    1
    22    26    27    1
    23    27    28    1
    24    28    29    1
    25    23    24    1
    26    24    25    1
    27     4     5   ar
    28     5     6   ar
    29    18     8   ar
    30     6     1   ar
    31    15    10   ar
    32    25    20    1
    33    29    26    1
@<TRIPOS>MOLECULE
*****
 29 33 0 0 0
SMALL
GASTEIGER

@<TRIPOS>ATOM
      1 C         141.7194  138.7689  161.6520 C.ar    1  UNL1        0.0681
      2 C         142.8172  137.7605  161.4849 C.ar    1  UNL1        0.0208
      3 C         143.2795  137.3758  160.1108 C.ar    1  UNL1        0.0384
      4 C         142.6439  137.9995  158.9038 C.ar    1  UNL1        0.1385
      5 C         141.5461  139.0079  159.0709 C.ar    1  UNL1        0.0384
      6 C         141.0839  139.3926  160.4450 C.ar    1  UNL1        0.0208
      7 C         143.1861  140.8864  163.1899 C.3     1  UNL1        0.0723
      8 C         141.9905  140.2124  163.7952 C.ar    1  UNL1        0.1268
      9 N         141.5283  140.5971  165.1693 N.ar    1  UNL1       -0.2318
     10 C         140.3328  139.9230  165.7746 C.ar    1  UNL1        0.0872
     11 C         139.8706  140.3077  167.1488 C.ar    1  UNL1        0.0193
     12 C         138.6751  139.6336  167.7540 C.ar    1  UNL1        0.0015
     13 C         137.9417  138.5749  166.9851 C.ar    1  UNL1        0.0003
     14 C         138.4039  138.1902  165.6110 C.ar    1  UNL1        0.0063
     15 C         139.5994  138.8642  165.0057 C.ar    1  UNL1        0.0742
     16 C         140.0617  138.4795  163.6315 C.ar    1  UNL1        0.2669
     17 O         139.3283  137.4208  162.8626 O.2     1  UNL1       -0.2665
     18 N         141.2572  139.1536  163.0263 N.ar    1  UNL1       -0.2626
     19 O         143.1061  137.6148  157.5295 O.3     1  UNL1       -0.4791
     20 C         142.7327  136.2786  156.9593 C.3     1  UNL1        0.1687
     21 C         141.6450  136.1794  155.9311 C.3     1  UNL1        0.0609
     22 C         141.2716  134.8432  155.3609 C.3     1  UNL1        0.0758
     23 N         141.9859  133.6062  155.8189 N.3     1  UNL1       -0.2737
     24 C         143.0735  133.7054  156.8471 C.3     1  UNL1        0.0758
     25 C         143.4469  135.0416  157.4173 C.3     1  UNL1        0.0609
     26 C         141.6124  132.2700  155.2487 C.3     1  UNL1        0.0575
     27 C         141.9331  130.8446  155.5887 C.3     1  UNL1        0.0160
     28 C         141.0843  130.3804  154.4424 C.3     1  UNL1        0.0028
     29 C         140.7638  131.8056  154.1024 C.3     1  UNL1        0.0160
@<TRIPOS>BOND
     1     7     8    1
     2     8     9   ar
     3     9    10   ar
     4    10    11   ar
     5    11    12   ar
     6    12    13   ar
     7    13    14   ar
     8    14    15   ar
     9    15    16   ar
    10    16    17    2
    11    16    18   ar
    12    18     1    1
    13     1     2   ar
    14     2     3   ar
    15     3     4   ar
    16     4    19    1
    17    19    20    1
    18    20    21    1
    19    21    22    1
    20    22    23    1
    21    23    26    1
    22    26    27    1
    23    27    28    1
    24    28    29    1
    25    23    24    1
    26    24    25    1
    27     4     5   ar
    28     5     6   ar
    29    18     8   ar
    30     6     1   ar
    31    15    10   ar
    32    25    20    1
    33    29    26    1
@<TRIPOS>MOLECULE
*****
 29 33 0 0 0
SMALL
GASTEIGER

@<TRIPOS>ATOM
      1 C         139.8164  139.2673  164.8523 C.ar    1  UNL1        0.0681
      2 C         139.2491  140.2696  163.8913 C.ar    1  UNL1        0.0208
      3 C         139.0371  139.8945  162.4545 C.ar    1  UNL1        0.0384
      4 C         139.3923  138.5170  161.9788 C.ar    1  UNL1        0.1385
      5 C         139.9596  137.5147  162.9398 C.ar    1  UNL1        0.0384
      6 C         140.1716  137.8898  164.3765 C.ar    1  UNL1        0.0208
      7 C         137.6904  138.6790  166.8856 C.3     1  UNL1        0.0723
      8 C         138.9654  139.3484  167.3057 C.ar    1  UNL1        0.1268
      9 N         139.1774  139.7235  168.7425 N.ar    1  UNL1       -0.2318
     10 C         140.4524  140.3928  169.1626 C.ar    1  UNL1        0.0872
     11 C         140.6644  140.7680  170.5994 C.ar    1  UNL1        0.0193
     12 C         141.9393  141.4373  171.0195 C.ar    1  UNL1        0.0015
     13 C         143.0023  141.7314  170.0028 C.ar    1  UNL1        0.0003
     14 C         142.7903  141.3562  168.5661 C.ar    1  UNL1        0.0063
     15 C         141.5154  140.6870  168.1460 C.ar    1  UNL1        0.0742
     16 C         141.3034  140.3118  166.7092 C.ar    1  UNL1        0.2669
     17 O         142.3663  140.6059  165.6925 O.2     1  UNL1       -0.2665
     18 N         140.0284  139.6425  166.2891 N.ar    1  UNL1       -0.2626
     19 O         139.1803  138.1418  160.5420 O.3     1  UNL1       -0.4791
     20 C         140.2690  138.3762  159.5371 C.3     1  UNL1        0.1687
     21 C         141.6696  138.6507  159.9990 C.3     1  UNL1        0.0609
     22 C         142.7583  138.8851  158.9942 C.3     1  UNL1        0.0758
     23 N         142.4465  138.8449  157.5274 N.3     1  UNL1       -0.2737
     24 C         141.0461  138.5704  157.0656 C.3     1  UNL1        0.0758
     25 C         139.9573  138.3361  158.0705 C.3     1  UNL1        0.0609
     26 C         143.5353  139.0793  156.5226 C.3     1  UNL1        0.0575
     27 C         144.5311  140.1731  156.2733 C.3     1  UNL1        0.0160
     28 C         145.0750  139.4107  155.1016 C.3     1  UNL1        0.0028
     29 C         144.0793  138.3170  155.3509 C.3     1  UNL1        0.0160
@<TRIPOS>BOND
     1     7     8    1
     2     8     9   ar
     3     9    10   ar
     4    10    11   ar
     5    11    12   ar
     6    12    13   ar
     7    13    14   ar
     8    14    15   ar
     9    15    16   ar
    10    16    17    2
    11    16    18   ar
    12    18     1    1
    13     1     2   ar
    14     2     3   ar
    15     3     4   ar
    16     4    19    1
    17    19    20    1
    18    20    21    1
    19    21    22    1
    20    22    23    1
    21    23    26    1
    22    26    27    1
    23    27    28    1
    24    28    29    1
    25    23    24    1
    26    24    25    1
    27     4     5   ar
    28     5     6   ar
    29    18     8   ar
    30     6     1   ar
    31    15    10   ar
    32    25    20    1
    33    29    26    1
@<TRIPOS>MOLECULE
*****
 29 33 0 0 0
SMALL
GASTEIGER

@<TRIPOS>ATOM
      1 C         140.8718  139.3803  160.2239 C.ar    1  UNL1        0.0681
      2 C         140.4996  139.4254  158.7715 C.ar    1  UNL1        0.0208
      3 C         141.3110  138.6643  157.7654 C.ar    1  UNL1        0.0384
      4 C         142.4945  137.8582  158.2116 C.ar    1  UNL1        0.1385
      5 C         142.8668  137.8131  159.6640 C.ar    1  UNL1        0.0384
      6 C         142.0554  138.5742  160.6701 C.ar    1  UNL1        0.0208
      7 C         138.5622  138.0518  161.6025 C.3     1  UNL1        0.0723
      8 C         138.9056  139.4772  161.9194 C.ar    1  UNL1        0.1268
      9 N         138.0941  140.2382  162.9255 N.ar    1  UNL1       -0.2318
     10 C         138.4375  141.6637  163.2424 C.ar    1  UNL1        0.0872
     11 C         137.6261  142.4247  164.2485 C.ar    1  UNL1        0.0193
     12 C         137.9695  143.8501  164.5653 C.ar    1  UNL1        0.0015
     13 C         139.1243  144.5144  163.8760 C.ar    1  UNL1        0.0003
     14 C         139.9357  143.7533  162.8699 C.ar    1  UNL1        0.0063
     15 C         139.5923  142.3280  162.5531 C.ar    1  UNL1        0.0742
     16 C         140.4038  141.5668  161.5469 C.ar    1  UNL1        0.2669
     17 O         141.5586  142.2311  160.8576 O.2     1  UNL1       -0.2665
     18 N         140.0604  140.1415  161.2301 N.ar    1  UNL1       -0.2626
     19 O         143.3060  137.0970  157.2054 O.3     1  UNL1       -0.4791
     20 C         142.8552  135.7409  156.7497 C.3     1  UNL1        0.1687
     21 C         143.4498  134.5077  157.3629 C.3     1  UNL1        0.0609
     22 C         142.9990  133.1515  156.9072 C.3     1  UNL1        0.0758
     23 N         141.9538  133.0285  155.8383 N.3     1  UNL1       -0.2737
     24 C         141.3593  134.2617  155.2252 C.3     1  UNL1        0.0758
     25 C         141.8101  135.6178  155.6809 C.3     1  UNL1        0.0609
     26 C         141.5030  131.6724  155.3826 C.3     1  UNL1        0.0575
     27 C         142.0532  130.2808  155.4883 C.3     1  UNL1        0.0160
     28 C         140.8656  129.7545  154.7382 C.3     1  UNL1        0.0028
     29 C         140.3156  131.1459  154.6325 C.3     1  UNL1        0.0160
@<TRIPOS>BOND
     1     7     8    1
     2     8     9   ar
     3     9    10   ar
     4    10    11   ar
     5    11    12   ar
     6    12    13   ar
     7    13    14   ar
     8    14    15   ar
     9    15    16   ar
    10    16    17    2
    11    16    18   ar
    12    18     1    1
    13     1     2   ar
    14     2     3   ar
    15     3     4   ar
    16     4    19    1
    17    19    20    1
    18    20    21    1
    19    21    22    1
    20    22    23    1
    21    23    26    1
    22    26    27    1
    23    27    28    1
    24    28    29    1
    25    23    24    1
    26    24    25    1
    27     4     5   ar
    28     5     6   ar
    29    18     8   ar
    30     6     1   ar
    31    15    10   ar
    32    25    20    1
    33    29    26    1
@<TRIPOS>MOLECULE
*****
 29 33 0 0 0
SMALL
GASTEIGER

@<TRIPOS>ATOM
      1 C         141.4516  139.8572  163.3812 C.ar    1  UNL1        0.0681
      2 C         141.0253  138.6441  162.6088 C.ar    1  UNL1        0.0208
      3 C         140.8480  138.7260  161.1216 C.ar    1  UNL1        0.0384
      4 C         141.0970  140.0210  160.4068 C.ar    1  UNL1        0.1385
      5 C         141.5234  141.2341  161.1793 C.ar    1  UNL1        0.0384
      6 C         141.7007  141.1522  162.6665 C.ar    1  UNL1        0.0208
      7 C         144.1171  139.1061  164.5349 C.3     1  UNL1        0.0723
      8 C         142.9617  139.3997  165.4454 C.ar    1  UNL1        0.1268
      9 N         143.1390  139.3177  166.9326 N.ar    1  UNL1       -0.2318
     10 C         141.9836  139.6113  167.8430 C.ar    1  UNL1        0.0872
     11 C         142.1609  139.5294  169.3302 C.ar    1  UNL1        0.0193
     12 C         141.0055  139.8229  170.2405 C.ar    1  UNL1        0.0015
     13 C         139.6728  140.1985  169.6637 C.ar    1  UNL1        0.0003
     14 C         139.4954  140.2804  168.1765 C.ar    1  UNL1        0.0063
     15 C         140.6508  139.9869  167.2662 C.ar    1  UNL1        0.0742
     16 C         140.4735  140.0688  165.7789 C.ar    1  UNL1        0.2669
     17 O         139.1408  140.4443  165.2020 O.2     1  UNL1       -0.2665
     18 N         141.6289  139.7752  164.8685 N.ar    1  UNL1       -0.2626
     19 O         140.9197  140.1029  158.9196 O.3     1  UNL1       -0.4791
     20 C         141.1847  138.8988  158.0652 C.3     1  UNL1        0.1687
     21 C         142.5773  138.3536  157.9486 C.3     1  UNL1        0.0609
     22 C         142.8422  137.1495  157.0943 C.3     1  UNL1        0.0758
     23 N         141.7145  136.4905  156.3565 N.3     1  UNL1       -0.2737
     24 C         140.3220  137.0357  156.4732 C.3     1  UNL1        0.0758
     25 C         140.0571  138.2398  157.3275 C.3     1  UNL1        0.0609
     26 C         141.9795  135.2864  155.5022 C.3     1  UNL1        0.0575
     27 C         141.8770  133.8029  155.6990 C.3     1  UNL1        0.0160
     28 C         142.3541  133.5836  154.2940 C.3     1  UNL1        0.0028
     29 C         142.4566  135.0670  154.0972 C.3     1  UNL1        0.0160
@<TRIPOS>BOND
     1     7     8    1
     2     8     9   ar
     3     9    10   ar
     4    10    11   ar
     5    11    12   ar
     6    12    13   ar
     7    13    14   ar
     8    14    15   ar
     9    15    16   ar
    10    16    17    2
    11    16    18   ar
    12    18     1    1
    13     1     2   ar
    14     2     3   ar
    15     3     4   ar
    16     4    19    1
    17    19    20    1
    18    20    21    1
    19    21    22    1
    20    22    23    1
    21    23    26    1
    22    26    27    1
    23    27    28    1
    24    28    29    1
    25    23    24    1
    26    24    25    1
    27     4     5   ar
    28     5     6   ar
    29    18     8   ar
    30     6     1   ar
    31    15    10   ar
    32    25    20    1
    33    29    26    1
@<TRIPOS>MOLECULE
*****
 29 33 0 0 0
SMALL
GASTEIGER

@<TRIPOS>ATOM
      1 C         142.3730  138.7698  159.6293 C.ar    1  UNL1        0.0681
      2 C         142.8730  137.7336  160.5917 C.ar    1  UNL1        0.0208
      3 C         143.6997  138.1447  161.7738 C.ar    1  UNL1        0.0384
      4 C         144.0264  139.5921  161.9936 C.ar    1  UNL1        0.1385
      5 C         143.5265  140.6283  161.0312 C.ar    1  UNL1        0.0384
      6 C         142.6998  140.2172  159.8490 C.ar    1  UNL1        0.0208
      7 C         139.3799  138.7379  159.8304 C.3     1  UNL1        0.0723
      8 C         140.0497  138.3427  158.5476 C.ar    1  UNL1        0.1268
      9 N         139.2230  137.9316  157.3656 N.ar    1  UNL1       -0.2318
     10 C         139.8928  137.5363  156.0828 C.ar    1  UNL1        0.0872
     11 C         139.0660  137.1252  154.9008 C.ar    1  UNL1        0.0193
     12 C         139.7358  136.7300  153.6181 C.ar    1  UNL1        0.0015
     13 C         141.2323  136.7459  153.5176 C.ar    1  UNL1        0.0003
     14 C         142.0591  137.1571  154.6997 C.ar    1  UNL1        0.0063
     15 C         141.3893  137.5523  155.9823 C.ar    1  UNL1        0.0742
     16 C         142.2161  137.9635  157.1645 C.ar    1  UNL1        0.2669
     17 O         143.7126  137.9794  157.0640 O.2     1  UNL1       -0.2665
     18 N         141.5463  138.3587  158.4471 N.ar    1  UNL1       -0.2626
     19 O         144.8532  140.0033  163.1757 O.3     1  UNL1       -0.4791
     20 C         144.1883  140.5683  164.3958 C.3     1  UNL1        0.1687
     21 C         143.4401  139.6633  165.3293 C.3     1  UNL1        0.0609
     22 C         142.7752  140.2283  166.5494 C.3     1  UNL1        0.0758
     23 N         142.8585  141.6984  166.8360 N.3     1  UNL1       -0.2737
     24 C         143.6067  142.6033  165.9026 C.3     1  UNL1        0.0758
     25 C         144.2716  142.0383  164.6825 C.3     1  UNL1        0.0609
     26 C         142.1936  142.2635  168.0561 C.3     1  UNL1        0.0575
     27 C         142.6520  142.6491  169.4314 C.3     1  UNL1        0.0160
     28 C         141.2533  143.0625  169.7816 C.3     1  UNL1        0.0028
     29 C         140.7949  142.6769  168.4065 C.3     1  UNL1        0.0160
@<TRIPOS>BOND
     1     7     8    1
     2     8     9   ar
     3     9    10   ar
     4    10    11   ar
     5    11    12   ar
     6    12    13   ar
     7    13    14   ar
     8    14    15   ar
     9    15    16   ar
    10    16    17    2
    11    16    18   ar
    12    18     1    1
    13     1     2   ar
    14     2     3   ar
    15     3     4   ar
    16     4    19    1
    17    19    20    1
    18    20    21    1
    19    21    22    1
    20    22    23    1
    21    23    26    1
    22    26    27    1
    23    27    28    1
    24    28    29    1
    25    23    24    1
    26    24    25    1
    27     4     5   ar
    28     5     6   ar
    29    18     8   ar
    30     6     1   ar
    31    15    10   ar
    32    25    20    1
    33    29    26    1
@<TRIPOS>MOLECULE
*****
 29 33 0 0 0
SMALL
GASTEIGER

@<TRIPOS>ATOM
      1 C         139.3269  141.4225  164.6561 C.ar    1  UNL1        0.0681
      2 C         139.7954  140.7117  163.4211 C.ar    1  UNL1        0.0208
      3 C         139.2619  141.1120  162.0775 C.ar    1  UNL1        0.0384
      4 C         138.2600  142.2230  161.9691 C.ar    1  UNL1        0.1385
      5 C         137.7916  142.9337  163.2041 C.ar    1  UNL1        0.0384
      6 C         138.3250  142.5335  164.5477 C.ar    1  UNL1        0.0208
      7 C         137.9878  139.2336  166.2103 C.3     1  UNL1        0.0723
      8 C         139.1909  139.9277  166.7768 C.ar    1  UNL1        0.1268
      9 N         139.7243  139.5274  168.1204 N.ar    1  UNL1       -0.2318
     10 C         140.9274  140.2215  168.6869 C.ar    1  UNL1        0.0872
     11 C         141.4609  139.8212  170.0304 C.ar    1  UNL1        0.0193
     12 C         142.6639  140.5153  170.5968 C.ar    1  UNL1        0.0015
     13 C         143.3335  141.6097  169.8197 C.ar    1  UNL1        0.0003
     14 C         142.8000  142.0101  168.4762 C.ar    1  UNL1        0.0063
     15 C         141.5970  141.3159  167.9098 C.ar    1  UNL1        0.0742
     16 C         141.0635  141.7163  166.5662 C.ar    1  UNL1        0.2669
     17 O         141.7330  142.8107  165.7891 O.2     1  UNL1       -0.2665
     18 N         139.8604  141.0222  165.9997 N.ar    1  UNL1       -0.2626
     19 O         137.7265  142.6233  160.6255 O.3     1  UNL1       -0.4791
     20 C         138.6721  143.0212  159.5312 C.3     1  UNL1        0.1687
     21 C         138.3916  142.6178  158.1139 C.3     1  UNL1        0.0609
     22 C         139.3372  143.0157  157.0197 C.3     1  UNL1        0.0758
     23 N         140.5635  143.8170  157.3427 N.3     1  UNL1       -0.2737
     24 C         140.8440  144.2204  158.7599 C.3     1  UNL1        0.0758
     25 C         139.8983  143.8225  159.8542 C.3     1  UNL1        0.0609
     26 C         141.5091  144.2149  156.2484 C.3     1  UNL1        0.0575
     27 C         141.4904  145.2357  155.1494 C.3     1  UNL1        0.0160
     28 C         142.8465  144.7776  154.7009 C.3     1  UNL1        0.0028
     29 C         142.8652  143.7569  155.7998 C.3     1  UNL1        0.0160
@<TRIPOS>BOND
     1     7     8    1
     2     8     9   ar
     3     9    10   ar
     4    10    11   ar
     5    11    12   ar
     6    12    13   ar
     7    13    14   ar
     8    14    15   ar
     9    15    16   ar
    10    16    17    2
    11    16    18   ar
    12    18     1    1
    13     1     2   ar
    14     2     3   ar
    15     3     4   ar
    16     4    19    1
    17    19    20    1
    18    20    21    1
    19    21    22    1
    20    22    23    1
    21    23    26    1
    22    26    27    1
    23    27    28    1
    24    28    29    1
    25    23    24    1
    26    24    25    1
    27     4     5   ar
    28     5     6   ar
    29    18     8   ar
    30     6     1   ar
    31    15    10   ar
    32    25    20    1
    33    29    26    1
@<TRIPOS>MOLECULE
*****
 29 33 0 0 0
SMALL
GASTEIGER

@<TRIPOS>ATOM
      1 C         141.4937  142.7779  164.1884 C.ar    1  UNL1        0.0681
      2 C         141.0849  144.2069  163.9863 C.ar    1  UNL1        0.0208
      3 C         141.3563  144.8866  162.6770 C.ar    1  UNL1        0.0384
      4 C         142.0367  144.1374  161.5699 C.ar    1  UNL1        0.1385
      5 C         142.4455  142.7084  161.7720 C.ar    1  UNL1        0.0384
      6 C         142.1741  142.0287  163.0813 C.ar    1  UNL1        0.0208
      7 C         138.8287  141.4941  164.6877 C.3     1  UNL1        0.0723
      8 C         139.8897  141.4562  165.7474 C.ar    1  UNL1        0.1268
      9 N         139.6182  140.7765  167.0567 N.ar    1  UNL1       -0.2318
     10 C         140.6792  140.7386  168.1163 C.ar    1  UNL1        0.0872
     11 C         140.4077  140.0589  169.4256 C.ar    1  UNL1        0.0193
     12 C         141.4687  140.0211  170.4852 C.ar    1  UNL1        0.0015
     13 C         142.8012  140.6630  170.2355 C.ar    1  UNL1        0.0003
     14 C         143.0728  141.3427  168.9263 C.ar    1  UNL1        0.0063
     15 C         142.0118  141.3805  167.8667 C.ar    1  UNL1        0.0742
     16 C         142.2833  142.0603  166.5573 C.ar    1  UNL1        0.2669
     17 O         143.6158  142.7022  166.3077 O.2     1  UNL1       -0.2665
     18 N         141.2222  142.0981  165.4977 N.ar    1  UNL1       -0.2626
     19 O         142.3082  144.8171  160.2605 O.3     1  UNL1       -0.4791
     20 C         141.3250  144.6953  159.1342 C.3     1  UNL1        0.1687
     21 C         140.3741  143.5360  159.0909 C.3     1  UNL1        0.0609
     22 C         139.3910  143.4141  157.9646 C.3     1  UNL1        0.0758
     23 N         139.3588  144.4515  156.8815 N.3     1  UNL1       -0.2737
     24 C         140.3097  145.6107  156.9249 C.3     1  UNL1        0.0758
     25 C         141.2929  145.7326  158.0512 C.3     1  UNL1        0.0609
     26 C         138.3757  144.3296  155.7552 C.3     1  UNL1        0.0575
     27 C         137.7097  145.2945  154.8195 C.3     1  UNL1        0.0160
     28 C         136.9854  144.1572  154.1623 C.3     1  UNL1        0.0028
     29 C         137.6514  143.1924  155.0979 C.3     1  UNL1        0.0160
@<TRIPOS>BOND
     1     7     8    1
     2     8     9   ar
     3     9    10   ar
     4    10    11   ar
     5    11    12   ar
     6    12    13   ar
     7    13    14   ar
     8    14    15   ar
     9    15    16   ar
    10    16    17    2
    11    16    18   ar
    12    18     1    1
    13     1     2   ar
    14     2     3   ar
    15     3     4   ar
    16     4    19    1
    17    19    20    1
    18    20    21    1
    19    21    22    1
    20    22    23    1
    21    23    26    1
    22    26    27    1
    23    27    28    1
    24    28    29    1
    25    23    24    1
    26    24    25    1
    27     4     5   ar
    28     5     6   ar
    29    18     8   ar
    30     6     1   ar
    31    15    10   ar
    32    25    20    1
    33    29    26    1
