@<TRIPOS>MOLECULE
*****
 43 48 0 0 0
SMALL
GASTEIGER

@<TRIPOS>ATOM
      1 C         142.0033  138.0495  164.0364 C.3     1  UNL1        0.0932
      2 C         142.9487  138.5338  165.0955 C.3     1  UNL1        0.0286
      3 C         144.1327  139.3733  164.7169 C.3     1  UNL1        0.0193
      4 C         144.3713  139.7284  163.2791 C.3     1  UNL1        0.0700
      5 C         143.4259  139.2441  162.2201 C.3     1  UNL1        0.0193
      6 C         142.2418  138.4046  162.5988 C.3     1  UNL1        0.0286
      7 C         143.7089  139.2660  163.4381 C.3     1  UNL1        0.1562
      8 O         142.6383  138.5069  163.7804 O.3     1  UNL1       -0.3572
      9 N         145.5553  140.5679  162.9005 N.3     1  UNL1       -0.2926
     10 H         145.6088  140.5592  161.8820 H       1  UNL1        0.1236
     11 C         145.6226  142.0049  163.3254 C.3     1  UNL1        0.1152
     12 C         144.4146  142.8839  163.1913 C.ar    1  UNL1        0.0765
     13 C         143.7598  143.4509  164.4160 C.ar    1  UNL1        0.0193
     14 C         142.5518  144.3299  164.2818 C.ar    1  UNL1        0.0411
     15 C         141.9986  144.6421  162.9230 C.ar    1  UNL1        0.1708
     16 C         142.6533  144.0752  161.6983 C.ar    1  UNL1        0.1682
     17 N         143.8614  143.1961  161.8324 N.ar    1  UNL1       -0.2304
     18 N         142.1001  144.3874  160.3394 N.am    1  UNL1       -0.2639
     19 C         140.8922  145.2664  160.2053 C.2     1  UNL1        0.2718
     20 O         140.3389  145.5786  158.8464 O.2     1  UNL1       -0.2707
     21 C         140.2374  145.8334  161.4300 C.3     1  UNL1        0.2898
     22 O         140.7906  145.5212  162.7889 O.3     1  UNL1       -0.4628
     23 H         142.5299  144.0153  159.5356 H       1  UNL1        0.1565
     24 C         140.8193  137.2100  164.4150 C.3     1  UNL1        0.0320
     25 C         139.5620  137.8646  164.9060 C.3     1  UNL1        0.0327
     26 C         140.2699  141.9238  166.7146 C.ar    1  UNL1        0.2249
     27 C         139.7468  143.1516  166.0298 C.ar    1  UNL1        0.0593
     28 C         138.9878  143.0262  164.7421 C.ar    1  UNL1        0.0254
     29 C         138.7518  141.6732  164.1392 C.ar    1  UNL1        0.0990
     30 N         137.9928  141.5478  162.8515 N.ar    1  UNL1       -0.2400
     31 C         137.7568  140.1948  162.2486 C.ar    1  UNL1        0.1281
     32 C         138.2799  138.9670  162.9335 C.ar    1  UNL1        0.1566
     33 F         138.0439  137.6139  162.3306 F       1  UNL1       -0.2028
     34 C         139.0389  139.0923  164.2211 C.ar    1  UNL1        0.0261
     35 C         139.2749  140.4454  164.8240 C.ar    1  UNL1        0.1002
     36 N         140.0339  140.5708  166.1117 N.ar    1  UNL1       -0.2104
     37 O         141.0289  142.0492  168.0023 O.3     1  UNL1       -0.4602
     38 C         142.3022  141.2813  168.2002 C.3     1  UNL1        0.2075
     39 C         142.3604  140.1727  169.2090 C.3     1  UNL1        0.0533
     40 C         142.1979  140.4777  170.6687 C.3     1  UNL1        0.0455
     41 O         140.5820  142.0671  171.9386 O.co2   1  UNL1       -0.5492
     42 C         140.8369  140.7717  171.2265 C.2     1  UNL1        0.0505
     43 O         139.7308  139.7703  171.0723 O.co2   1  UNL1       -0.5492
@<TRIPOS>UNITY_ATOM_ATTR
41 1
charge -1
@<TRIPOS>BOND
     1    41    42   ar
     2    42    43   ar
     3    42    40    1
     4    40    39    1
     5    39    38    1
     6    38    37    1
     7    37    26    1
     8    26    27   ar
     9    27    28   ar
    10    28    29   ar
    11    29    30   ar
    12    30    31   ar
    13    31    32   ar
    14    32    33    1
    15    32    34   ar
    16    34    25    1
    17    25    24    1
    18    24     1    1
    19     1     2    1
    20     2     3    1
    21     3     4    1
    22     4     9    1
    23     9    11    1
    24    11    12    1
    25    12    13   ar
    26    13    14   ar
    27    14    15   ar
    28    15    16   ar
    29    16    17   ar
    30    16    18    1
    31    18    19   am
    32    19    20    2
    33    19    21    1
    34    21    22    1
    35     4     5    1
    36     5     6    1
    37     4     7    1
    38     7     8    1
    39    34    35   ar
    40    35    36   ar
    41    36    26   ar
    42    35    29   ar
    43     6     1    1
    44     8     1    1
    45    17    12   ar
    46    22    15    1
    47     9    10    1
    48    18    23    1
@<TRIPOS>MOLECULE
*****
 43 48 0 0 0
SMALL
GASTEIGER

@<TRIPOS>ATOM
      1 C         137.8282  143.0027  162.9019 C.3     1  UNL1        0.0932
      2 C         138.0802  142.7153  161.4514 C.3     1  UNL1        0.0286
      3 C         138.1110  141.2977  160.9621 C.3     1  UNL1        0.0193
      4 C         137.8899  140.1675  161.9233 C.3     1  UNL1        0.0700
      5 C         137.6380  140.4549  163.3738 C.3     1  UNL1        0.0193
      6 C         137.6071  141.8726  163.8630 C.3     1  UNL1        0.0286
      7 C         137.8639  140.9278  162.2382 C.3     1  UNL1        0.1562
      8 O         137.8360  142.2096  162.6807 O.3     1  UNL1       -0.3572
      9 N         137.9208  138.7499  161.4340 N.3     1  UNL1       -0.2926
     10 H         137.3360  138.7138  160.5991 H       1  UNL1        0.1236
     11 C         139.2284  138.1087  161.0748 C.3     1  UNL1        0.1152
     12 C         140.4194  138.2814  161.9701 C.ar    1  UNL1        0.0765
     13 C         140.5600  137.4375  163.2023 C.ar    1  UNL1        0.0193
     14 C         141.7510  137.6101  164.0977 C.ar    1  UNL1        0.0411
     15 C         142.8014  138.6267  163.7610 C.ar    1  UNL1        0.1708
     16 C         142.6608  139.4706  162.5289 C.ar    1  UNL1        0.1682
     17 N         141.4698  139.2979  161.6334 N.ar    1  UNL1       -0.2304
     18 N         143.7111  140.4871  162.1922 N.am    1  UNL1       -0.2639
     19 C         144.9021  140.6598  163.0876 C.2     1  UNL1        0.2718
     20 O         145.9525  141.6763  162.7509 O.2     1  UNL1       -0.2707
     21 C         145.0428  139.8159  164.3197 C.3     1  UNL1        0.2898
     22 O         143.9924  138.7993  164.6564 O.3     1  UNL1       -0.4628
     23 H         143.6188  141.0410  161.3835 H       1  UNL1        0.1565
     24 C         137.7974  144.4203  163.3912 C.3     1  UNL1        0.0320
     25 C         138.8864  144.9276  164.2894 C.3     1  UNL1        0.0327
     26 C         140.8165  142.0281  167.1386 C.ar    1  UNL1        0.2249
     27 C         142.2346  141.5917  166.9183 C.ar    1  UNL1        0.0593
     28 C         143.0093  142.1218  165.7483 C.ar    1  UNL1        0.0254
     29 C         142.3660  143.0882  164.7986 C.ar    1  UNL1        0.0990
     30 N         143.1407  143.6183  163.6287 N.ar    1  UNL1       -0.2400
     31 C         142.4973  144.5848  162.6790 C.ar    1  UNL1        0.1281
     32 C         141.0792  145.0212  162.8992 C.ar    1  UNL1        0.1566
     33 F         140.4358  145.9877  161.9495 F       1  UNL1       -0.2028
     34 C         140.3045  144.4912  164.0692 C.ar    1  UNL1        0.0261
     35 C         140.9479  143.5247  165.0189 C.ar    1  UNL1        0.1002
     36 N         140.1732  142.9946  166.1889 N.ar    1  UNL1       -0.2104
     37 O         140.0418  141.4981  168.3086 O.3     1  UNL1       -0.4602
     38 C         140.6630  140.4829  169.2216 C.3     1  UNL1        0.2075
     39 C         140.7636  140.7592  170.6925 C.3     1  UNL1        0.0533
     40 C         141.8619  141.6357  171.2175 C.3     1  UNL1        0.0455
     41 O         143.6653  142.8910  169.8312 O.co2   1  UNL1       -0.5492
     42 C         142.2950  142.8427  170.4394 C.2     1  UNL1        0.0505
     43 O         141.3577  144.0014  170.2694 O.co2   1  UNL1       -0.5492
@<TRIPOS>UNITY_ATOM_ATTR
41 1
charge -1
@<TRIPOS>BOND
     1    41    42   ar
     2    42    43   ar
     3    42    40    1
     4    40    39    1
     5    39    38    1
     6    38    37    1
     7    37    26    1
     8    26    27   ar
     9    27    28   ar
    10    28    29   ar
    11    29    30   ar
    12    30    31   ar
    13    31    32   ar
    14    32    33    1
    15    32    34   ar
    16    34    25    1
    17    25    24    1
    18    24     1    1
    19     1     2    1
    20     2     3    1
    21     3     4    1
    22     4     9    1
    23     9    11    1
    24    11    12    1
    25    12    13   ar
    26    13    14   ar
    27    14    15   ar
    28    15    16   ar
    29    16    17   ar
    30    16    18    1
    31    18    19   am
    32    19    20    2
    33    19    21    1
    34    21    22    1
    35     4     5    1
    36     5     6    1
    37     4     7    1
    38     7     8    1
    39    34    35   ar
    40    35    36   ar
    41    36    26   ar
    42    35    29   ar
    43     6     1    1
    44     8     1    1
    45    17    12   ar
    46    22    15    1
    47     9    10    1
    48    18    23    1
@<TRIPOS>MOLECULE
*****
 43 48 0 0 0
SMALL
GASTEIGER

@<TRIPOS>ATOM
      1 C         143.7682  141.9307  164.0207 C.3     1  UNL1        0.0932
      2 C         144.0346  142.7149  162.7700 C.3     1  UNL1        0.0286
      3 C         143.2865  143.9886  162.5098 C.3     1  UNL1        0.0193
      4 C         142.2719  144.4783  163.5002 C.3     1  UNL1        0.0700
      5 C         142.0055  143.6942  164.7509 C.3     1  UNL1        0.0193
      6 C         142.7537  142.4203  165.0111 C.3     1  UNL1        0.0286
      7 C         142.6569  143.7747  163.6863 C.3     1  UNL1        0.1562
      8 O         143.3334  142.6229  163.9216 O.3     1  UNL1       -0.3572
      9 N         141.5238  145.7521  163.2400 N.3     1  UNL1       -0.2926
     10 H         142.1820  146.3957  162.8009 H       1  UNL1        0.1236
     11 C         140.2941  145.7376  162.3811 C.3     1  UNL1        0.1152
     12 C         139.5140  144.4680  162.2095 C.ar    1  UNL1        0.0765
     13 C         138.4573  144.0963  163.2073 C.ar    1  UNL1        0.0193
     14 C         137.6772  142.8267  163.0357 C.ar    1  UNL1        0.0411
     15 C         137.9537  141.9287  161.8665 C.ar    1  UNL1        0.1708
     16 C         139.0103  142.3003  160.8688 C.ar    1  UNL1        0.1682
     17 N         139.7905  143.5700  161.0403 N.ar    1  UNL1       -0.2304
     18 N         139.2869  141.4023  159.6995 N.am    1  UNL1       -0.2639
     19 C         138.5068  140.1327  159.5280 C.2     1  UNL1        0.2718
     20 O         138.7833  139.2347  158.3587 O.2     1  UNL1       -0.2707
     21 C         137.4501  139.7610  160.5257 C.3     1  UNL1        0.2898
     22 O         137.1736  140.6590  161.6950 O.3     1  UNL1       -0.4628
     23 H         139.9804  141.6462  159.0447 H       1  UNL1        0.1565
     24 C         144.5163  140.6569  164.2809 C.3     1  UNL1        0.0320
     25 C         143.7796  139.4363  164.7472 C.3     1  UNL1        0.0327
     26 C         139.5563  139.3804  166.2998 C.ar    1  UNL1        0.2249
     27 C         138.4562  138.8020  165.4602 C.ar    1  UNL1        0.0593
     28 C         138.7638  138.2422  164.1030 C.ar    1  UNL1        0.0254
     29 C         140.1715  138.2608  163.5854 C.ar    1  UNL1        0.0990
     30 N         140.4791  137.7010  162.2282 N.ar    1  UNL1       -0.2400
     31 C         141.8868  137.7196  161.7107 C.ar    1  UNL1        0.1281
     32 C         142.9871  138.2980  162.5503 C.ar    1  UNL1        0.1566
     33 F         144.3948  138.3166  162.0328 F       1  UNL1       -0.2028
     34 C         142.6795  138.8579  163.9075 C.ar    1  UNL1        0.0261
     35 C         141.2717  138.8392  164.4251 C.ar    1  UNL1        0.1002
     36 N         140.9641  139.3990  165.7823 N.ar    1  UNL1       -0.2104
     37 O         139.2488  139.9403  167.6570 O.3     1  UNL1       -0.4602
     38 C         140.3018  140.6943  168.4136 C.3     1  UNL1        0.2075
     39 C         140.4881  142.1637  168.1769 C.3     1  UNL1        0.0533
     40 C         140.8706  143.0640  169.3142 C.3     1  UNL1        0.0455
     41 O         138.9741  143.0705  171.0899 O.co2   1  UNL1       -0.5492
     42 C         140.3904  142.7632  170.7030 C.2     1  UNL1        0.0505
     43 O         141.3265  142.1551  171.7050 O.co2   1  UNL1       -0.5492
@<TRIPOS>UNITY_ATOM_ATTR
41 1
charge -1
@<TRIPOS>BOND
     1    41    42   ar
     2    42    43   ar
     3    42    40    1
     4    40    39    1
     5    39    38    1
     6    38    37    1
     7    37    26    1
     8    26    27   ar
     9    27    28   ar
    10    28    29   ar
    11    29    30   ar
    12    30    31   ar
    13    31    32   ar
    14    32    33    1
    15    32    34   ar
    16    34    25    1
    17    25    24    1
    18    24     1    1
    19     1     2    1
    20     2     3    1
    21     3     4    1
    22     4     9    1
    23     9    11    1
    24    11    12    1
    25    12    13   ar
    26    13    14   ar
    27    14    15   ar
    28    15    16   ar
    29    16    17   ar
    30    16    18    1
    31    18    19   am
    32    19    20    2
    33    19    21    1
    34    21    22    1
    35     4     5    1
    36     5     6    1
    37     4     7    1
    38     7     8    1
    39    34    35   ar
    40    35    36   ar
    41    36    26   ar
    42    35    29   ar
    43     6     1    1
    44     8     1    1
    45    17    12   ar
    46    22    15    1
    47     9    10    1
    48    18    23    1
@<TRIPOS>MOLECULE
*****
 43 48 0 0 0
SMALL
GASTEIGER

@<TRIPOS>ATOM
      1 C         137.8666  142.7798  163.5644 C.3     1  UNL1        0.0932
      2 C         137.7904  142.5908  162.0783 C.3     1  UNL1        0.0286
      3 C         137.8027  141.2084  161.4964 C.3     1  UNL1        0.0193
      4 C         137.8912  140.0148  162.4007 C.3     1  UNL1        0.0700
      5 C         137.9674  140.2037  163.8868 C.3     1  UNL1        0.0193
      6 C         137.9551  141.5863  164.4686 C.3     1  UNL1        0.0286
      7 C         137.8876  140.7527  162.7659 C.3     1  UNL1        0.1562
      8 O         137.8765  142.0028  163.2921 O.3     1  UNL1       -0.3572
      9 N         137.9035  138.6323  161.8188 N.3     1  UNL1       -0.2926
     10 H         137.1685  138.6037  161.1121 H       1  UNL1        0.1236
     11 C         139.1482  138.1023  161.1708 C.3     1  UNL1        0.1152
     12 C         140.4888  138.3777  161.7846 C.ar    1  UNL1        0.0765
     13 C         141.6018  138.9251  160.9410 C.ar    1  UNL1        0.0193
     14 C         142.9425  139.2005  161.5548 C.ar    1  UNL1        0.0411
     15 C         143.1702  138.9285  163.0122 C.ar    1  UNL1        0.1708
     16 C         142.0573  138.3811  163.8559 C.ar    1  UNL1        0.1682
     17 N         140.7165  138.1057  163.2421 N.ar    1  UNL1       -0.2304
     18 N         142.2850  138.1091  165.3133 N.am    1  UNL1       -0.2639
     19 C         143.6257  138.3844  165.9271 C.2     1  UNL1        0.2718
     20 O         143.8534  138.1124  167.3846 O.2     1  UNL1       -0.2707
     21 C         144.7387  138.9318  165.0835 C.3     1  UNL1        0.2898
     22 O         144.5109  139.2038  163.6260 O.3     1  UNL1       -0.4628
     23 H         141.5545  137.7498  165.8670 H       1  UNL1        0.1565
     24 C         137.8543  144.1622  164.1463 C.3     1  UNL1        0.0320
     25 C         139.1424  144.8203  164.5435 C.3     1  UNL1        0.0327
     26 C         142.6699  142.4546  166.0303 C.ar    1  UNL1        0.2249
     27 C         143.8874  142.3015  165.1678 C.ar    1  UNL1        0.0593
     28 C         143.9292  142.9368  163.8096 C.ar    1  UNL1        0.0254
     29 C         142.7535  143.7254  163.3140 C.ar    1  UNL1        0.0990
     30 N         142.7952  144.3607  161.9559 N.ar    1  UNL1       -0.2400
     31 C         141.6195  145.1493  161.4602 C.ar    1  UNL1        0.1281
     32 C         140.4018  145.3025  162.3228 C.ar    1  UNL1        0.1566
     33 F         139.2260  146.0910  161.8272 F       1  UNL1       -0.2028
     34 C         140.3600  144.6671  163.6809 C.ar    1  UNL1        0.0261
     35 C         141.5359  143.8785  164.1765 C.ar    1  UNL1        0.1002
     36 N         141.4941  143.2432  165.5347 N.ar    1  UNL1       -0.2104
     37 O         142.6281  141.8193  167.3885 O.3     1  UNL1       -0.4602
     38 C         141.5375  140.8472  167.7285 C.3     1  UNL1        0.2075
     39 C         140.3523  141.2996  168.5289 C.3     1  UNL1        0.0533
     40 C         140.4037  142.5993  169.2761 C.3     1  UNL1        0.0455
     41 O         140.5386  142.1318  171.8282 O.co2   1  UNL1       -0.5492
     42 C         141.1477  142.6884  170.5755 C.2     1  UNL1        0.0505
     43 O         142.5008  143.3341  170.6223 O.co2   1  UNL1       -0.5492
@<TRIPOS>UNITY_ATOM_ATTR
41 1
charge -1
@<TRIPOS>BOND
     1    41    42   ar
     2    42    43   ar
     3    42    40    1
     4    40    39    1
     5    39    38    1
     6    38    37    1
     7    37    26    1
     8    26    27   ar
     9    27    28   ar
    10    28    29   ar
    11    29    30   ar
    12    30    31   ar
    13    31    32   ar
    14    32    33    1
    15    32    34   ar
    16    34    25    1
    17    25    24    1
    18    24     1    1
    19     1     2    1
    20     2     3    1
    21     3     4    1
    22     4     9    1
    23     9    11    1
    24    11    12    1
    25    12    13   ar
    26    13    14   ar
    27    14    15   ar
    28    15    16   ar
    29    16    17   ar
    30    16    18    1
    31    18    19   am
    32    19    20    2
    33    19    21    1
    34    21    22    1
    35     4     5    1
    36     5     6    1
    37     4     7    1
    38     7     8    1
    39    34    35   ar
    40    35    36   ar
    41    36    26   ar
    42    35    29   ar
    43     6     1    1
    44     8     1    1
    45    17    12   ar
    46    22    15    1
    47     9    10    1
    48    18    23    1
@<TRIPOS>MOLECULE
*****
 43 48 0 0 0
SMALL
GASTEIGER

@<TRIPOS>ATOM
      1 C         139.4070  137.8760  164.4751 C.3     1  UNL1        0.0932
      2 C         140.8141  137.4787  164.8102 C.3     1  UNL1        0.0286
      3 C         141.8203  137.2864  163.7144 C.3     1  UNL1        0.0193
      4 C         141.4194  137.4915  162.2836 C.3     1  UNL1        0.0700
      5 C         140.0123  137.8888  161.9485 C.3     1  UNL1        0.0193
      6 C         139.0061  138.0811  163.0443 C.3     1  UNL1        0.0286
      7 C         140.8330  137.6085  162.8496 C.3     1  UNL1        0.1562
      8 O         139.9232  137.7824  163.8404 O.3     1  UNL1       -0.3572
      9 N         142.4255  137.2992  161.1879 N.3     1  UNL1       -0.2926
     10 H         141.9439  137.4896  160.3091 H       1  UNL1        0.1236
     11 C         143.6860  138.1122  161.1759 C.3     1  UNL1        0.1152
     12 C         143.6757  139.5196  161.6948 C.ar    1  UNL1        0.0765
     13 C         144.5644  139.9029  162.8408 C.ar    1  UNL1        0.0193
     14 C         144.5540  141.3102  163.3598 C.ar    1  UNL1        0.0411
     15 C         143.6550  142.3342  162.7327 C.ar    1  UNL1        0.1708
     16 C         142.7664  141.9509  161.5867 C.ar    1  UNL1        0.1682
     17 N         142.7767  140.5436  161.0677 N.ar    1  UNL1       -0.2304
     18 N         141.8674  142.9750  160.9597 N.am    1  UNL1       -0.2639
     19 C         141.8570  144.3823  161.4786 C.2     1  UNL1        0.2718
     20 O         140.9580  145.4063  160.8515 O.2     1  UNL1       -0.2707
     21 C         142.7457  144.7656  162.6246 C.3     1  UNL1        0.2898
     22 O         143.6447  143.7416  163.2517 O.3     1  UNL1       -0.4628
     23 H         141.2841  142.7234  160.2075 H       1  UNL1        0.1565
     24 C         138.4009  138.0683  165.5708 C.3     1  UNL1        0.0320
     25 C         138.2330  139.4165  166.2068 C.3     1  UNL1        0.0327
     26 C         142.2776  140.4140  167.9087 C.ar    1  UNL1        0.2249
     27 C         143.0428  141.5920  167.3827 C.ar    1  UNL1        0.0593
     28 C         142.4599  142.4374  166.2893 C.ar    1  UNL1        0.0254
     29 C         141.1117  142.1050  165.7220 C.ar    1  UNL1        0.0990
     30 N         140.5288  142.9504  164.6287 N.ar    1  UNL1       -0.2400
     31 C         139.1806  142.6179  164.0614 C.ar    1  UNL1        0.1281
     32 C         138.4153  141.4399  164.5875 C.ar    1  UNL1        0.1566
     33 F         137.0672  141.1074  164.0202 F       1  UNL1       -0.2028
     34 C         138.9982  140.5944  165.6808 C.ar    1  UNL1        0.0261
     35 C         140.3465  140.9270  166.2481 C.ar    1  UNL1        0.1002
     36 N         140.9294  140.0815  167.3414 N.ar    1  UNL1       -0.2104
     37 O         142.8605  139.5685  169.0020 O.3     1  UNL1       -0.4602
     38 C         142.6066  139.9198  170.4380 C.3     1  UNL1        0.2075
     39 C         141.3203  140.5836  170.8316 C.3     1  UNL1        0.0533
     40 C         141.2881  142.0601  171.0944 C.3     1  UNL1        0.0455
     41 O         139.0688  143.3920  171.3193 O.co2   1  UNL1       -0.5492
     42 C         140.2140  142.9079  170.4801 C.2     1  UNL1        0.0505
     43 O         140.2851  143.2718  169.0267 O.co2   1  UNL1       -0.5492
@<TRIPOS>UNITY_ATOM_ATTR
41 1
charge -1
@<TRIPOS>BOND
     1    41    42   ar
     2    42    43   ar
     3    42    40    1
     4    40    39    1
     5    39    38    1
     6    38    37    1
     7    37    26    1
     8    26    27   ar
     9    27    28   ar
    10    28    29   ar
    11    29    30   ar
    12    30    31   ar
    13    31    32   ar
    14    32    33    1
    15    32    34   ar
    16    34    25    1
    17    25    24    1
    18    24     1    1
    19     1     2    1
    20     2     3    1
    21     3     4    1
    22     4     9    1
    23     9    11    1
    24    11    12    1
    25    12    13   ar
    26    13    14   ar
    27    14    15   ar
    28    15    16   ar
    29    16    17   ar
    30    16    18    1
    31    18    19   am
    32    19    20    2
    33    19    21    1
    34    21    22    1
    35     4     5    1
    36     5     6    1
    37     4     7    1
    38     7     8    1
    39    34    35   ar
    40    35    36   ar
    41    36    26   ar
    42    35    29   ar
    43     6     1    1
    44     8     1    1
    45    17    12   ar
    46    22    15    1
    47     9    10    1
    48    18    23    1
@<TRIPOS>MOLECULE
*****
 43 48 0 0 0
SMALL
GASTEIGER

@<TRIPOS>ATOM
      1 C         142.5216  142.0372  166.0710 C.3     1  UNL1        0.0932
      2 C         141.1780  142.5078  165.5985 C.3     1  UNL1        0.0286
      3 C         139.9485  141.7112  165.9203 C.3     1  UNL1        0.0193
      4 C         140.0625  140.4439  166.7147 C.3     1  UNL1        0.0700
      5 C         141.4061  139.9733  167.1872 C.3     1  UNL1        0.0193
      6 C         142.6357  140.7700  166.8654 C.3     1  UNL1        0.0286
      7 C         140.7645  140.8466  166.5629 C.3     1  UNL1        0.1562
      8 O         141.8763  141.5670  166.2720 O.3     1  UNL1       -0.3572
      9 N         138.8330  139.6472  167.0365 N.3     1  UNL1       -0.2926
     10 H         138.0423  140.2887  166.9760 H       1  UNL1        0.1236
     11 C         138.4802  138.4459  166.2104 C.3     1  UNL1        0.1152
     12 C         138.9297  138.3596  164.7820 C.ar    1  UNL1        0.0765
     13 C         140.1380  137.5460  164.4238 C.ar    1  UNL1        0.0193
     14 C         140.5875  137.4597  162.9954 C.ar    1  UNL1        0.0411
     15 C         139.8289  138.1870  161.9251 C.ar    1  UNL1        0.1708
     16 C         138.6207  139.0006  162.2832 C.ar    1  UNL1        0.1682
     17 N         138.1711  139.0869  163.7117 N.ar    1  UNL1       -0.2304
     18 N         137.8620  139.7279  161.2130 N.am    1  UNL1       -0.2639
     19 C         138.3116  139.6416  159.7845 C.2     1  UNL1        0.2718
     20 O         137.5529  140.3689  158.7143 O.2     1  UNL1       -0.2707
     21 C         139.5198  138.8280  159.4263 C.3     1  UNL1        0.2898
     22 O         140.2785  138.1007  160.4966 O.3     1  UNL1       -0.4628
     23 H         137.0690  140.2619  161.4480 H       1  UNL1        0.1565
     24 C         143.7511  142.8339  165.7492 C.3     1  UNL1        0.0320
     25 C         144.6419  142.4141  164.6177 C.3     1  UNL1        0.0327
     26 C         141.8427  143.8186  161.3863 C.ar    1  UNL1        0.2249
     27 C         141.3409  142.8509  160.3560 C.ar    1  UNL1        0.0593
     28 C         141.7721  141.4150  160.4028 C.ar    1  UNL1        0.0254
     29 C         142.7052  140.9468  161.4799 C.ar    1  UNL1        0.0990
     30 N         143.1364  139.5109  161.5266 N.ar    1  UNL1       -0.2400
     31 C         144.0695  139.0427  162.6037 C.ar    1  UNL1        0.1281
     32 C         144.5713  140.0105  163.6341 C.ar    1  UNL1        0.1566
     33 F         145.5044  139.5423  164.7112 F       1  UNL1       -0.2028
     34 C         144.1401  141.4464  163.5873 C.ar    1  UNL1        0.0261
     35 C         143.2070  141.9145  162.5102 C.ar    1  UNL1        0.1002
     36 N         142.7757  143.3505  162.4634 N.ar    1  UNL1       -0.2104
     37 O         141.4114  145.2545  161.3396 O.3     1  UNL1       -0.4602
     38 C         140.1208  145.6713  161.9803 C.3     1  UNL1        0.2075
     39 C         139.5600  144.8774  163.1227 C.3     1  UNL1        0.0533
     40 C         138.1270  144.4345  163.0962 C.3     1  UNL1        0.0455
     41 O         138.0416  143.0186  160.9194 O.co2   1  UNL1       -0.5492
     42 C         137.7454  143.1718  162.3820 C.2     1  UNL1        0.0505
     43 O         137.0677  142.0624  163.1302 O.co2   1  UNL1       -0.5492
@<TRIPOS>UNITY_ATOM_ATTR
41 1
charge -1
@<TRIPOS>BOND
     1    41    42   ar
     2    42    43   ar
     3    42    40    1
     4    40    39    1
     5    39    38    1
     6    38    37    1
     7    37    26    1
     8    26    27   ar
     9    27    28   ar
    10    28    29   ar
    11    29    30   ar
    12    30    31   ar
    13    31    32   ar
    14    32    33    1
    15    32    34   ar
    16    34    25    1
    17    25    24    1
    18    24     1    1
    19     1     2    1
    20     2     3    1
    21     3     4    1
    22     4     9    1
    23     9    11    1
    24    11    12    1
    25    12    13   ar
    26    13    14   ar
    27    14    15   ar
    28    15    16   ar
    29    16    17   ar
    30    16    18    1
    31    18    19   am
    32    19    20    2
    33    19    21    1
    34    21    22    1
    35     4     5    1
    36     5     6    1
    37     4     7    1
    38     7     8    1
    39    34    35   ar
    40    35    36   ar
    41    36    26   ar
    42    35    29   ar
    43     6     1    1
    44     8     1    1
    45    17    12   ar
    46    22    15    1
    47     9    10    1
    48    18    23    1
@<TRIPOS>MOLECULE
*****
 43 48 0 0 0
SMALL
GASTEIGER

@<TRIPOS>ATOM
      1 C         139.0511  143.1089  163.0639 C.3     1  UNL1        0.0932
      2 C         139.8088  143.4877  164.3018 C.3     1  UNL1        0.0286
      3 C         141.1138  144.2183  164.1883 C.3     1  UNL1        0.0193
      4 C         141.6613  144.5702  162.8367 C.3     1  UNL1        0.0700
      5 C         140.9036  144.1915  161.5988 C.3     1  UNL1        0.0193
      6 C         139.5985  143.4608  161.7124 C.3     1  UNL1        0.0286
      7 C         140.9422  144.1694  162.8487 C.3     1  UNL1        0.1562
      8 O         139.7621  143.5087  162.9513 O.3     1  UNL1       -0.3572
      9 N         142.9663  145.3009  162.7232 N.3     1  UNL1       -0.2926
     10 H         142.9898  145.9815  163.4825 H       1  UNL1        0.1236
     11 C         144.2586  144.5416  162.7822 C.3     1  UNL1        0.1152
     12 C         144.2538  143.0445  162.6896 C.ar    1  UNL1        0.0765
     13 C         144.6167  142.2177  163.8874 C.ar    1  UNL1        0.0193
     14 C         144.6118  140.7206  163.7948 C.ar    1  UNL1        0.0411
     15 C         144.2440  140.0502  162.5043 C.ar    1  UNL1        0.1708
     16 C         143.8811  140.8769  161.3065 C.ar    1  UNL1        0.1682
     17 N         143.8860  142.3741  161.3991 N.ar    1  UNL1       -0.2304
     18 N         143.5133  140.2065  160.0160 N.am    1  UNL1       -0.2639
     19 C         143.5085  138.7094  159.9234 C.2     1  UNL1        0.2718
     20 O         143.1407  138.0390  158.6329 O.2     1  UNL1       -0.2707
     21 C         143.8714  137.8826  161.1213 C.3     1  UNL1        0.2898
     22 O         144.2392  138.5530  162.4117 O.3     1  UNL1       -0.4628
     23 H         143.2751  140.7491  159.2299 H       1  UNL1        0.1565
     24 C         137.7461  142.3782  163.1774 C.3     1  UNL1        0.0320
     25 C         137.7050  141.0057  163.7813 C.3     1  UNL1        0.0327
     26 C         141.2248  139.2965  166.0038 C.ar    1  UNL1        0.2249
     27 C         142.0279  138.1852  165.3956 C.ar    1  UNL1        0.0593
     28 C         141.6578  137.6436  164.0467 C.ar    1  UNL1        0.0254
     29 C         140.4846  138.2133  163.3058 C.ar    1  UNL1        0.0990
     30 N         140.1145  137.6717  161.9569 N.ar    1  UNL1       -0.2400
     31 C         138.9413  138.2415  161.2160 C.ar    1  UNL1        0.1281
     32 C         138.1380  139.3528  161.8242 C.ar    1  UNL1        0.1566
     33 F         136.9648  139.9226  161.0834 F       1  UNL1       -0.2028
     34 C         138.5081  139.8944  163.1732 C.ar    1  UNL1        0.0261
     35 C         139.6814  139.3246  163.9140 C.ar    1  UNL1        0.1002
     36 N         140.0515  139.8662  165.2630 N.ar    1  UNL1       -0.2104
     37 O         141.5949  139.8381  167.3528 O.3     1  UNL1       -0.4602
     38 C         140.7077  140.8422  168.0270 C.3     1  UNL1        0.2075
     39 C         140.8589  142.3026  167.7196 C.3     1  UNL1        0.0533
     40 C         140.2630  143.3279  168.6381 C.3     1  UNL1        0.0455
     41 O         139.5597  143.0174  171.1198 O.co2   1  UNL1       -0.5492
     42 C         140.6133  143.3223  170.0966 C.2     1  UNL1        0.0505
     43 O         142.0172  143.6216  170.5318 O.co2   1  UNL1       -0.5492
@<TRIPOS>UNITY_ATOM_ATTR
41 1
charge -1
@<TRIPOS>BOND
     1    41    42   ar
     2    42    43   ar
     3    42    40    1
     4    40    39    1
     5    39    38    1
     6    38    37    1
     7    37    26    1
     8    26    27   ar
     9    27    28   ar
    10    28    29   ar
    11    29    30   ar
    12    30    31   ar
    13    31    32   ar
    14    32    33    1
    15    32    34   ar
    16    34    25    1
    17    25    24    1
    18    24     1    1
    19     1     2    1
    20     2     3    1
    21     3     4    1
    22     4     9    1
    23     9    11    1
    24    11    12    1
    25    12    13   ar
    26    13    14   ar
    27    14    15   ar
    28    15    16   ar
    29    16    17   ar
    30    16    18    1
    31    18    19   am
    32    19    20    2
    33    19    21    1
    34    21    22    1
    35     4     5    1
    36     5     6    1
    37     4     7    1
    38     7     8    1
    39    34    35   ar
    40    35    36   ar
    41    36    26   ar
    42    35    29   ar
    43     6     1    1
    44     8     1    1
    45    17    12   ar
    46    22    15    1
    47     9    10    1
    48    18    23    1
@<TRIPOS>MOLECULE
*****
 43 48 0 0 0
SMALL
GASTEIGER

@<TRIPOS>ATOM
      1 C         144.5140  140.0072  163.7595 C.3     1  UNL1        0.0932
      2 C         144.0127  139.6223  162.3991 C.3     1  UNL1        0.0286
      3 C         142.9468  138.5761  162.2609 C.3     1  UNL1        0.0193
      4 C         142.3822  137.9146  163.4832 C.3     1  UNL1        0.0700
      5 C         142.8835  138.2994  164.8435 C.3     1  UNL1        0.0193
      6 C         143.9495  139.3457  164.9816 C.3     1  UNL1        0.0286
      7 C         142.9649  138.4824  163.6090 C.3     1  UNL1        0.1562
      8 O         143.9288  139.4285  163.7340 O.3     1  UNL1       -0.3572
      9 N         141.3163  136.8683  163.3450 N.3     1  UNL1       -0.2926
     10 H         141.6536  136.0382  163.8324 H       1  UNL1        0.1236
     11 C         139.9312  137.1368  163.8544 C.3     1  UNL1        0.1152
     12 C         139.3620  138.5228  163.7846 C.ar    1  UNL1        0.0765
     13 C         138.5787  139.0710  164.9405 C.ar    1  UNL1        0.0193
     14 C         138.0094  140.4570  164.8706 C.ar    1  UNL1        0.0411
     15 C         138.2234  141.2948  163.6450 C.ar    1  UNL1        0.1708
     16 C         139.0067  140.7467  162.4892 C.ar    1  UNL1        0.1682
     17 N         139.5760  139.3606  162.5590 N.ar    1  UNL1       -0.2304
     18 N         139.2207  141.5845  161.2635 N.am    1  UNL1       -0.2639
     19 C         138.6515  142.9705  161.1937 C.2     1  UNL1        0.2718
     20 O         138.8655  143.8084  159.9681 O.2     1  UNL1       -0.2707
     21 C         137.8682  143.5188  162.3496 C.3     1  UNL1        0.2898
     22 O         137.6541  142.6809  163.5752 O.3     1  UNL1       -0.4628
     23 H         139.7348  141.2248  160.5049 H       1  UNL1        0.1565
     24 C         145.5799  141.0535  163.8976 C.3     1  UNL1        0.0320
     25 C         145.2190  142.4362  164.3535 C.3     1  UNL1        0.0327
     26 C         141.9584  142.1522  167.4418 C.ar    1  UNL1        0.2249
     27 C         140.5963  142.7073  167.1475 C.ar    1  UNL1        0.0593
     28 C         140.3210  143.3570  165.8239 C.ar    1  UNL1        0.0254
     29 C         141.4079  143.4517  164.7945 C.ar    1  UNL1        0.0990
     30 N         141.1326  144.1014  163.4708 N.ar    1  UNL1       -0.2400
     31 C         142.2195  144.1961  162.4414 C.ar    1  UNL1        0.1281
     32 C         143.5817  143.6410  162.7356 C.ar    1  UNL1        0.1566
     33 F         144.6685  143.7357  161.7061 F       1  UNL1       -0.2028
     34 C         143.8569  142.9913  164.0592 C.ar    1  UNL1        0.0261
     35 C         142.7700  142.8966  165.0887 C.ar    1  UNL1        0.1002
     36 N         143.0452  142.2469  166.4124 N.ar    1  UNL1       -0.2104
     37 O         142.2336  141.5025  168.7654 O.3     1  UNL1       -0.4602
     38 C         142.1754  140.0092  168.8945 C.3     1  UNL1        0.2075
     39 C         141.7991  139.3837  170.2049 C.3     1  UNL1        0.0533
     40 C         140.4592  139.6703  170.8154 C.3     1  UNL1        0.0455
     41 O         139.0101  141.7820  170.3782 O.co2   1  UNL1       -0.5492
     42 C         139.4076  140.3815  170.0165 C.2     1  UNL1        0.0505
     43 O         138.7536  139.6923  168.8558 O.co2   1  UNL1       -0.5492
@<TRIPOS>UNITY_ATOM_ATTR
41 1
charge -1
@<TRIPOS>BOND
     1    41    42   ar
     2    42    43   ar
     3    42    40    1
     4    40    39    1
     5    39    38    1
     6    38    37    1
     7    37    26    1
     8    26    27   ar
     9    27    28   ar
    10    28    29   ar
    11    29    30   ar
    12    30    31   ar
    13    31    32   ar
    14    32    33    1
    15    32    34   ar
    16    34    25    1
    17    25    24    1
    18    24     1    1
    19     1     2    1
    20     2     3    1
    21     3     4    1
    22     4     9    1
    23     9    11    1
    24    11    12    1
    25    12    13   ar
    26    13    14   ar
    27    14    15   ar
    28    15    16   ar
    29    16    17   ar
    30    16    18    1
    31    18    19   am
    32    19    20    2
    33    19    21    1
    34    21    22    1
    35     4     5    1
    36     5     6    1
    37     4     7    1
    38     7     8    1
    39    34    35   ar
    40    35    36   ar
    41    36    26   ar
    42    35    29   ar
    43     6     1    1
    44     8     1    1
    45    17    12   ar
    46    22    15    1
    47     9    10    1
    48    18    23    1
@<TRIPOS>MOLECULE
*****
 43 48 0 0 0
SMALL
GASTEIGER

@<TRIPOS>ATOM
      1 C         139.9924  138.2644  164.3209 C.3     1  UNL1        0.0932
      2 C         139.2874  139.0650  165.3755 C.3     1  UNL1        0.0286
      3 C         138.2625  140.0869  164.9814 C.3     1  UNL1        0.0193
      4 C         137.9425  140.3081  163.5327 C.3     1  UNL1        0.0700
      5 C         138.6474  139.5075  162.4781 C.3     1  UNL1        0.0193
      6 C         139.6724  138.4856  162.8723 C.3     1  UNL1        0.0286
      7 C         138.5115  139.7370  163.7000 C.3     1  UNL1        0.1562
      8 O         139.4383  138.8130  164.0563 O.3     1  UNL1       -0.3572
      9 N         136.9176  141.3300  163.1386 N.3     1  UNL1       -0.2926
     10 H         136.1635  141.2697  163.8228 H       1  UNL1        0.1236
     11 C         137.2999  142.7772  163.0419 C.3     1  UNL1        0.1152
     12 C         138.5175  143.1809  162.2644 C.ar    1  UNL1        0.0765
     13 C         139.7606  143.6091  162.9865 C.ar    1  UNL1        0.0193
     14 C         140.9781  144.0129  162.2090 C.ar    1  UNL1        0.0411
     15 C         140.9526  143.9884  160.7094 C.ar    1  UNL1        0.1708
     16 C         139.7096  143.5602  159.9873 C.ar    1  UNL1        0.1682
     17 N         138.4920  143.1564  160.7648 N.ar    1  UNL1       -0.2304
     18 N         139.6841  143.5357  158.4877 N.am    1  UNL1       -0.2639
     19 C         140.9016  143.9394  157.7102 C.2     1  UNL1        0.2718
     20 O         140.8761  143.9150  156.2106 O.2     1  UNL1       -0.2707
     21 C         142.1447  144.3677  158.4323 C.3     1  UNL1        0.2898
     22 O         142.1703  144.3922  159.9319 O.3     1  UNL1       -0.4628
     23 H         138.8682  143.2547  158.0138 H       1  UNL1        0.1565
     24 C         141.0173  137.2426  164.7150 C.3     1  UNL1        0.0320
     25 C         142.4107  137.6741  165.0649 C.3     1  UNL1        0.0327
     26 C         142.7745  140.9655  168.1119 C.ar    1  UNL1        0.2249
     27 C         143.2664  142.3204  167.6971 C.ar    1  UNL1        0.0593
     28 C         143.6371  142.5783  166.2667 C.ar    1  UNL1        0.0254
     29 C         143.5158  141.4812  165.2510 C.ar    1  UNL1        0.0990
     30 N         143.8865  141.7390  163.8206 N.ar    1  UNL1       -0.2400
     31 C         143.7652  140.6419  162.8049 C.ar    1  UNL1        0.1281
     32 C         143.2732  139.2869  163.2197 C.ar    1  UNL1        0.1566
     33 F         143.1520  138.1898  162.2040 F       1  UNL1       -0.2028
     34 C         142.9026  139.0291  164.6501 C.ar    1  UNL1        0.0261
     35 C         143.0239  140.1262  165.6658 C.ar    1  UNL1        0.1002
     36 N         142.6532  139.8684  167.0962 N.ar    1  UNL1       -0.2104
     37 O         142.4038  140.7077  169.5423 O.3     1  UNL1       -0.4602
     38 C         141.2769  139.7730  169.8683 C.3     1  UNL1        0.2075
     39 C         139.8572  140.2473  169.7714 C.3     1  UNL1        0.0533
     40 C         139.5646  141.7088  169.6023 C.3     1  UNL1        0.0455
     41 O         139.9833  144.1563  170.3669 O.co2   1  UNL1       -0.5492
     42 C         139.9855  142.6852  170.6604 C.2     1  UNL1        0.0505
     43 O         140.4086  142.1906  172.0118 O.co2   1  UNL1       -0.5492
@<TRIPOS>UNITY_ATOM_ATTR
41 1
charge -1
@<TRIPOS>BOND
     1    41    42   ar
     2    42    43   ar
     3    42    40    1
     4    40    39    1
     5    39    38    1
     6    38    37    1
     7    37    26    1
     8    26    27   ar
     9    27    28   ar
    10    28    29   ar
    11    29    30   ar
    12    30    31   ar
    13    31    32   ar
    14    32    33    1
    15    32    34   ar
    16    34    25    1
    17    25    24    1
    18    24     1    1
    19     1     2    1
    20     2     3    1
    21     3     4    1
    22     4     9    1
    23     9    11    1
    24    11    12    1
    25    12    13   ar
    26    13    14   ar
    27    14    15   ar
    28    15    16   ar
    29    16    17   ar
    30    16    18    1
    31    18    19   am
    32    19    20    2
    33    19    21    1
    34    21    22    1
    35     4     5    1
    36     5     6    1
    37     4     7    1
    38     7     8    1
    39    34    35   ar
    40    35    36   ar
    41    36    26   ar
    42    35    29   ar
    43     6     1    1
    44     8     1    1
    45    17    12   ar
    46    22    15    1
    47     9    10    1
    48    18    23    1
