@<TRIPOS>MOLECULE
*****
 37 41 0 0 0
SMALL
GASTEIGER

@<TRIPOS>ATOM
      1 C         139.1384  141.4401  163.7216 C.3     1  UNL1        0.0890
      2 C         139.9368  140.2564  163.2616 C.3     1  UNL1        0.0386
      3 C         139.8141  138.9446  163.9786 C.3     1  UNL1        0.0594
      4 C         139.3906  137.8853  164.9524 C.3     1  UNL1        0.0174
      5 C         138.3977  138.4946  165.8975 C.3     1  UNL1        0.0174
      6 C         138.2077  139.9306  165.5076 C.3     1  UNL1        0.0594
      7 C         138.2173  141.3118  164.8984 C.3     1  UNL1        0.0386
      8 N         139.0830  140.2086  164.3217 N.3     1  UNL1       -0.2750
      9 C         142.2372  144.6760  158.1936 C.2     1  UNL1        0.2259
     10 O         142.1796  146.0837  157.6788 O.2     1  UNL1       -0.2749
     11 N         141.5211  144.1220  159.3895 N.am    1  UNL1       -0.2734
     12 C         141.6929  142.6800  159.7652 C.3     1  UNL1        0.1000
     13 C         140.9768  142.1260  160.9611 C.3     1  UNL1        0.0666
     14 C         140.0889  143.0140  161.7814 C.ar    1  UNL1        0.0549
     15 C         139.9170  144.4560  161.4058 C.ar    1  UNL1        0.0919
     16 N         138.9831  145.0851  162.3969 N.ar    1  UNL1       -0.2339
     17 C         138.5778  144.0319  163.3850 C.ar    1  UNL1        0.1201
     18 C         137.6517  144.2248  164.5491 C.3     1  UNL1        0.0718
     19 N         139.2612  142.7519  163.0046 N.ar    1  UNL1       -0.3202
     20 C         140.6332  145.0100  160.2098 C.3     1  UNL1        0.1405
     21 C         142.7742  143.4887  155.9459 C.3     1  UNL1        0.0101
     22 C         143.1251  143.7880  157.3733 C.3     1  UNL1        0.0853
     23 C         139.2058  141.5205  163.6048 C.3     1  UNL1        0.0741
     24 C         139.9064  142.6721  164.2627 C.3     1  UNL1        0.0414
     25 C         141.2345  142.4612  164.9274 C.3     1  UNL1        0.0955
     26 C         141.2959  141.9308  166.3291 C.ar    1  UNL1       -0.0022
     27 C         140.5818  142.6499  167.4350 C.ar    1  UNL1       -0.0025
     28 C         140.6431  142.1196  168.8368 C.ar    1  UNL1        0.0020
     29 C         141.4186  140.8701  169.1327 C.ar    1  UNL1        0.0296
     30 C         142.1327  140.1511  168.0268 C.ar    1  UNL1        0.1399
     31 F         142.9483  138.8977  168.1440 F       1  UNL1       -0.2042
     32 C         142.0713  140.6814  166.6250 C.ar    1  UNL1        0.0270
     33 N         142.5012  142.7808  164.1903 N.am    1  UNL1       -0.3021
     34 C         142.7940  144.1934  163.7796 C.2     1  UNL1        0.2232
     35 C         144.0606  144.5131  163.0425 C.3     1  UNL1        0.0946
     36 O         142.0668  145.4961  163.9360 O.2     1  UNL1       -0.2751
     37 H         143.1404  142.0633  163.9760 H       1  UNL1        0.1497
@<TRIPOS>BOND
     1    21    22    1
     2    22     9    1
     3     9    10    2
     4     9    11   am
     5    11    12    1
     6    12    13    1
     7    13    14    1
     8    14    15   ar
     9    15    16   ar
    10    16    17   ar
    11    17    18    1
    12    17    19   ar
    13     1    19    1
    14     1     2    1
    15     3     2    1
    16     3     4    1
    17     4     5    1
    18     6     5    1
    19     6     7    1
    20     6     8    1
    21     8    23    1
    22    23    24    1
    23    25    24    1
    24    25    33    1
    25    33    34   am
    26    34    35    1
    27    34    36    2
    28    25    26    1
    29    26    27   ar
    30    27    28   ar
    31    28    29   ar
    32    29    30   ar
    33    30    31    1
    34    30    32   ar
    35    15    20    1
    36    20    11    1
    37    19    14   ar
    38     7     1    1
    39    32    26   ar
    40     8     3    1
    41    33    37    1
@<TRIPOS>MOLECULE
*****
 37 41 0 0 0
SMALL
GASTEIGER

@<TRIPOS>ATOM
      1 C         143.6384  141.0858  164.4865 C.3     1  UNL1        0.0890
      2 C         144.0723  139.6518  164.4144 C.3     1  UNL1        0.0386
      3 C         143.8383  138.7378  165.5805 C.3     1  UNL1        0.0594
      4 C         143.4192  138.2172  166.9234 C.3     1  UNL1        0.0174
      5 C         142.7831  139.3455  167.6801 C.3     1  UNL1        0.0174
      6 C         142.8091  140.5633  166.8047 C.3     1  UNL1        0.0594
      7 C         142.9705  141.6059  165.7248 C.3     1  UNL1        0.0386
      8 N         143.4612  140.1878  165.5072 N.3     1  UNL1       -0.2750
      9 C         144.1496  141.3006  157.3925 C.2     1  UNL1        0.2259
     10 O         144.4052  142.4195  156.4267 O.2     1  UNL1       -0.2749
     11 N         144.0665  141.3992  158.8870 N.am    1  UNL1       -0.2734
     12 C         143.8021  140.1708  159.7061 C.3     1  UNL1        0.1000
     13 C         143.7189  140.2695  161.2006 C.3     1  UNL1        0.0666
     14 C         143.9002  141.5965  161.8759 C.ar    1  UNL1        0.0549
     15 C         144.1646  142.8249  161.0567 C.ar    1  UNL1        0.0919
     16 N         144.3002  143.9875  161.9949 N.ar    1  UNL1       -0.2339
     17 C         144.1195  143.4775  163.3939 C.ar    1  UNL1        0.1201
     18 C         144.1762  144.3006  164.6467 C.3     1  UNL1        0.0718
     19 N         143.8723  141.9998  163.3203 N.ar    1  UNL1       -0.3202
     20 C         144.2477  142.7263  159.5623 C.3     1  UNL1        0.1405
     21 C         144.8464  139.5938  155.5619 C.3     1  UNL1        0.0101
     22 C         143.9684  139.9735  156.7173 C.3     1  UNL1        0.0853
     23 C         143.6951  141.1017  164.3411 C.3     1  UNL1        0.0741
     24 C         142.5864  141.9805  163.8426 C.3     1  UNL1        0.0414
     25 C         141.2089  141.4168  163.6558 C.3     1  UNL1        0.0955
     26 C         140.0233  142.3344  163.6071 C.ar    1  UNL1       -0.0022
     27 C         139.0118  142.1950  162.5083 C.ar    1  UNL1       -0.0025
     28 C         137.8262  143.1125  162.4595 C.ar    1  UNL1        0.0020
     29 C         137.6520  144.1695  163.5095 C.ar    1  UNL1        0.0296
     30 C         138.6636  144.3088  164.6083 C.ar    1  UNL1        0.1399
     31 F         138.6454  145.3031  165.7313 F       1  UNL1       -0.2042
     32 C         139.8492  143.3913  164.6571 C.ar    1  UNL1        0.0270
     33 N         141.0171  139.9355  163.5178 N.am    1  UNL1       -0.3021
     34 C         140.2418  139.1797  164.5559 C.2     1  UNL1        0.2232
     35 C         140.0500  137.6985  164.4180 C.3     1  UNL1        0.0946
     36 O         139.5406  139.5711  165.8229 O.2     1  UNL1       -0.2751
     37 H         141.4001  139.4594  162.7459 H       1  UNL1        0.1497
@<TRIPOS>BOND
     1    21    22    1
     2    22     9    1
     3     9    10    2
     4     9    11   am
     5    11    12    1
     6    12    13    1
     7    13    14    1
     8    14    15   ar
     9    15    16   ar
    10    16    17   ar
    11    17    18    1
    12    17    19   ar
    13     1    19    1
    14     1     2    1
    15     3     2    1
    16     3     4    1
    17     4     5    1
    18     6     5    1
    19     6     7    1
    20     6     8    1
    21     8    23    1
    22    23    24    1
    23    25    24    1
    24    25    33    1
    25    33    34   am
    26    34    35    1
    27    34    36    2
    28    25    26    1
    29    26    27   ar
    30    27    28   ar
    31    28    29   ar
    32    29    30   ar
    33    30    31    1
    34    30    32   ar
    35    15    20    1
    36    20    11    1
    37    19    14   ar
    38     7     1    1
    39    32    26   ar
    40     8     3    1
    41    33    37    1
@<TRIPOS>MOLECULE
*****
 37 41 0 0 0
SMALL
GASTEIGER

@<TRIPOS>ATOM
      1 C         143.2614  141.0423  166.0945 C.3     1  UNL1        0.0890
      2 C         143.1142  142.0465  167.1990 C.3     1  UNL1        0.0386
      3 C         142.7641  141.5913  168.5847 C.3     1  UNL1        0.0594
      4 C         142.4212  140.7190  169.7557 C.3     1  UNL1        0.0174
      5 C         142.3890  139.2966  169.2805 C.3     1  UNL1        0.0174
      6 C         142.7120  139.2900  167.8157 C.3     1  UNL1        0.0594
      7 C         143.0584  139.5830  166.3758 C.3     1  UNL1        0.0386
      8 N         142.9438  140.7081  167.3857 N.3     1  UNL1       -0.2750
      9 C         143.3401  139.0530  159.2631 C.2     1  UNL1        0.2259
     10 O         143.7690  139.7521  158.0072 O.2     1  UNL1       -0.2749
     11 N         143.3788  139.6001  160.6592 N.am    1  UNL1       -0.2734
     12 C         142.9078  138.7584  161.8079 C.3     1  UNL1        0.1000
     13 C         142.9464  139.3056  163.2040 C.3     1  UNL1        0.0666
     14 C         143.4560  140.6945  163.4514 C.ar    1  UNL1        0.0549
     15 C         143.9269  141.5362  162.3027 C.ar    1  UNL1        0.0919
     16 N         144.3735  142.8595  162.8501 N.ar    1  UNL1       -0.2339
     17 C         144.1786  142.8355  164.3371 C.ar    1  UNL1        0.1201
     18 C         144.4951  143.9533  165.2860 C.3     1  UNL1        0.0718
     19 N         143.6115  141.4975  164.7088 N.ar    1  UNL1       -0.3202
     20 C         143.8883  140.9890  160.9065 C.3     1  UNL1        0.1405
     21 C         142.6138  137.1837  157.6113 C.3     1  UNL1        0.0101
     22 C         142.8306  137.6640  159.0157 C.3     1  UNL1        0.0853
     23 C         143.2939  141.1633  166.0000 C.3     1  UNL1        0.0741
     24 C         142.2099  141.3862  164.9875 C.3     1  UNL1        0.0414
     25 C         140.7985  141.6193  165.4387 C.3     1  UNL1        0.0955
     26 C         139.8925  140.4528  165.7005 C.ar    1  UNL1       -0.0022
     27 C         139.2582  140.2838  167.0492 C.ar    1  UNL1       -0.0025
     28 C         138.3522  139.1174  167.3111 C.ar    1  UNL1        0.0020
     29 C         138.0804  138.1199  166.2242 C.ar    1  UNL1        0.0296
     30 C         138.7148  138.2890  164.8755 C.ar    1  UNL1        0.1399
     31 F         138.5536  137.3931  163.6834 F       1  UNL1       -0.2042
     32 C         139.6208  139.4554  164.6136 C.ar    1  UNL1        0.0270
     33 N         140.2932  143.0188  165.6282 N.am    1  UNL1       -0.3021
     34 C         138.9734  143.4253  165.0427 C.2     1  UNL1        0.2232
     35 C         138.4679  144.8248  165.2321 C.3     1  UNL1        0.0946
     36 O         137.9281  142.7142  164.2353 O.2     1  UNL1       -0.2751
     37 H         140.8277  143.6706  166.1369 H       1  UNL1        0.1497
@<TRIPOS>BOND
     1    21    22    1
     2    22     9    1
     3     9    10    2
     4     9    11   am
     5    11    12    1
     6    12    13    1
     7    13    14    1
     8    14    15   ar
     9    15    16   ar
    10    16    17   ar
    11    17    18    1
    12    17    19   ar
    13     1    19    1
    14     1     2    1
    15     3     2    1
    16     3     4    1
    17     4     5    1
    18     6     5    1
    19     6     7    1
    20     6     8    1
    21     8    23    1
    22    23    24    1
    23    25    24    1
    24    25    33    1
    25    33    34   am
    26    34    35    1
    27    34    36    2
    28    25    26    1
    29    26    27   ar
    30    27    28   ar
    31    28    29   ar
    32    29    30   ar
    33    30    31    1
    34    30    32   ar
    35    15    20    1
    36    20    11    1
    37    19    14   ar
    38     7     1    1
    39    32    26   ar
    40     8     3    1
    41    33    37    1
@<TRIPOS>MOLECULE
*****
 37 41 0 0 0
SMALL
GASTEIGER

@<TRIPOS>ATOM
      1 C         141.3016  138.9487  163.0967 C.3     1  UNL1        0.0890
      2 C         140.9508  139.1671  161.6548 C.3     1  UNL1        0.0386
      3 C         141.9933  138.9804  160.5926 C.3     1  UNL1        0.0594
      4 C         143.2960  138.6915  159.9074 C.3     1  UNL1        0.0174
      5 C         144.3031  138.3314  160.9592 C.3     1  UNL1        0.0174
      6 C         143.6227  138.3978  162.2944 C.3     1  UNL1        0.0594
      7 C         142.6950  138.5435  163.4764 C.3     1  UNL1        0.0386
      8 N         142.1953  138.7988  162.0678 N.3     1  UNL1       -0.2750
      9 C         140.3588  140.2529  170.0280 C.2     1  UNL1        0.2259
     10 O         139.1297  140.3962  170.8758 O.2     1  UNL1       -0.2749
     11 N         140.4121  139.9736  168.5552 N.am    1  UNL1       -0.2734
     12 C         141.7367  139.8608  167.8606 C.3     1  UNL1        0.1000
     13 C         141.7900  139.5816  166.3878 C.3     1  UNL1        0.0666
     14 C         140.5186  139.4151  165.6095 C.ar    1  UNL1        0.0549
     15 C         139.1939  139.5279  166.3041 C.ar    1  UNL1        0.0919
     16 N         138.1156  139.3180  165.2826 N.ar    1  UNL1       -0.2339
     17 C         138.7739  139.0755  163.9568 C.ar    1  UNL1        0.1201
     18 C         138.0706  138.8181  162.6571 C.3     1  UNL1        0.0718
     19 N         140.2590  139.1355  164.1589 N.ar    1  UNL1       -0.3202
     20 C         139.1407  139.8071  167.7769 C.3     1  UNL1        0.1405
     21 C         142.1613  141.7931  171.0903 C.3     1  UNL1        0.0101
     22 C         141.6302  140.4193  170.8062 C.3     1  UNL1        0.0853
     23 C         141.1527  138.9856  163.1300 C.3     1  UNL1        0.0741
     24 C         141.1639  140.2193  163.9831 C.3     1  UNL1        0.0414
     25 C         141.2587  141.5727  163.3434 C.3     1  UNL1        0.0955
     26 C         140.0767  142.4959  163.3627 C.ar    1  UNL1       -0.0022
     27 C         139.0564  142.4310  162.2650 C.ar    1  UNL1       -0.0025
     28 C         137.8743  143.3541  162.2841 C.ar    1  UNL1        0.0020
     29 C         137.7124  144.3423  163.4010 C.ar    1  UNL1        0.0296
     30 C         138.7327  144.4072  164.4987 C.ar    1  UNL1        0.1399
     31 F         138.7270  145.3275  165.6831 F       1  UNL1       -0.2042
     32 C         139.9148  143.4841  164.4795 C.ar    1  UNL1        0.0270
     33 N         142.5357  142.0030  162.6845 N.am    1  UNL1       -0.3021
     34 C         143.8220  141.9815  163.4560 C.2     1  UNL1        0.2232
     35 C         145.0990  142.4117  162.7972 C.3     1  UNL1        0.0946
     36 O         144.1891  141.6003  164.8596 O.2     1  UNL1       -0.2751
     37 H         142.5297  142.2994  161.7458 H       1  UNL1        0.1497
@<TRIPOS>BOND
     1    21    22    1
     2    22     9    1
     3     9    10    2
     4     9    11   am
     5    11    12    1
     6    12    13    1
     7    13    14    1
     8    14    15   ar
     9    15    16   ar
    10    16    17   ar
    11    17    18    1
    12    17    19   ar
    13     1    19    1
    14     1     2    1
    15     3     2    1
    16     3     4    1
    17     4     5    1
    18     6     5    1
    19     6     7    1
    20     6     8    1
    21     8    23    1
    22    23    24    1
    23    25    24    1
    24    25    33    1
    25    33    34   am
    26    34    35    1
    27    34    36    2
    28    25    26    1
    29    26    27   ar
    30    27    28   ar
    31    28    29   ar
    32    29    30   ar
    33    30    31    1
    34    30    32   ar
    35    15    20    1
    36    20    11    1
    37    19    14   ar
    38     7     1    1
    39    32    26   ar
    40     8     3    1
    41    33    37    1
@<TRIPOS>MOLECULE
*****
 37 41 0 0 0
SMALL
GASTEIGER

@<TRIPOS>ATOM
      1 C         139.1709  141.3922  163.7297 C.3     1  UNL1        0.0890
      2 C         138.4153  141.2814  165.0207 C.3     1  UNL1        0.0386
      3 C         138.2074  139.9382  165.6552 C.3     1  UNL1        0.0594
      4 C         138.2423  138.4607  165.9112 C.3     1  UNL1        0.0174
      5 C         138.9948  137.8130  164.7868 C.3     1  UNL1        0.0174
      6 C         139.4250  138.8904  163.8359 C.3     1  UNL1        0.0594
      7 C         139.7186  140.1597  163.0732 C.3     1  UNL1        0.0386
      8 N         138.9384  140.2037  164.3726 N.3     1  UNL1       -0.2750
      9 C         142.2037  144.7118  158.2148 C.2     1  UNL1        0.2259
     10 O         142.2561  146.1528  157.8014 O.2     1  UNL1       -0.2749
     11 N         141.5172  144.1431  159.4211 N.am    1  UNL1       -0.2734
     12 C         141.5652  142.6673  159.6853 C.3     1  UNL1        0.1000
     13 C         140.8787  142.0986  160.8916 C.3     1  UNL1        0.0666
     14 C         140.1442  143.0056  161.8338 C.ar    1  UNL1        0.0549
     15 C         140.0962  144.4814  161.5697 C.ar    1  UNL1        0.0919
     16 N         139.3010  145.1232  162.6678 N.ar    1  UNL1       -0.2339
     17 C         138.8577  144.0441  163.6106 C.ar    1  UNL1        0.1201
     18 C         138.0372  144.2394  164.8511 C.3     1  UNL1        0.0718
     19 N         139.3788  142.7354  163.0952 N.ar    1  UNL1       -0.3202
     20 C         140.7827  145.0501  160.3633 C.3     1  UNL1        0.1405
     21 C         142.6666  143.8752  155.7991 C.3     1  UNL1        0.0101
     22 C         142.9382  143.8048  157.2726 C.3     1  UNL1        0.0853
     23 C         139.1462  141.5469  163.7381 C.3     1  UNL1        0.0741
     24 C         140.5277  142.1225  163.6361 C.3     1  UNL1        0.0414
     25 C         141.4626  142.0407  164.8062 C.3     1  UNL1        0.0955
     26 C         142.6813  141.1693  164.7329 C.ar    1  UNL1       -0.0022
     27 C         142.6212  139.7529  165.2230 C.ar    1  UNL1       -0.0025
     28 C         143.8399  138.8815  165.1497 C.ar    1  UNL1        0.0020
     29 C         145.1188  139.4265  164.5863 C.ar    1  UNL1        0.0296
     30 C         145.1790  140.8429  164.0963 C.ar    1  UNL1        0.1399
     31 F         146.3667  141.5449  163.5078 F       1  UNL1       -0.2042
     32 C         143.9602  141.7144  164.1695 C.ar    1  UNL1        0.0270
     33 N         141.1787  142.8301  166.0496 N.am    1  UNL1       -0.3021
     34 C         140.8712  142.1204  167.3348 C.2     1  UNL1        0.2232
     35 C         140.5873  142.9098  168.5782 C.3     1  UNL1        0.0946
     36 O         140.7656  140.6768  167.7286 O.2     1  UNL1       -0.2751
     37 H         141.1943  143.8141  166.0222 H       1  UNL1        0.1497
@<TRIPOS>BOND
     1    21    22    1
     2    22     9    1
     3     9    10    2
     4     9    11   am
     5    11    12    1
     6    12    13    1
     7    13    14    1
     8    14    15   ar
     9    15    16   ar
    10    16    17   ar
    11    17    18    1
    12    17    19   ar
    13     1    19    1
    14     1     2    1
    15     3     2    1
    16     3     4    1
    17     4     5    1
    18     6     5    1
    19     6     7    1
    20     6     8    1
    21     8    23    1
    22    23    24    1
    23    25    24    1
    24    25    33    1
    25    33    34   am
    26    34    35    1
    27    34    36    2
    28    25    26    1
    29    26    27   ar
    30    27    28   ar
    31    28    29   ar
    32    29    30   ar
    33    30    31    1
    34    30    32   ar
    35    15    20    1
    36    20    11    1
    37    19    14   ar
    38     7     1    1
    39    32    26   ar
    40     8     3    1
    41    33    37    1
@<TRIPOS>MOLECULE
*****
 37 41 0 0 0
SMALL
GASTEIGER

@<TRIPOS>ATOM
      1 C         141.0159  138.9252  164.6621 C.3     1  UNL1        0.0890
      2 C         139.6819  138.2843  164.4184 C.3     1  UNL1        0.0386
      3 C         138.5941  138.4029  165.4444 C.3     1  UNL1        0.0594
      4 C         137.8416  138.7655  166.6903 C.3     1  UNL1        0.0174
      5 C         138.7541  139.5741  167.5642 C.3     1  UNL1        0.0174
      6 C         140.0705  139.7112  166.8583 C.3     1  UNL1        0.0594
      7 C         141.2622  139.6847  165.9319 C.3     1  UNL1        0.0386
      8 N         139.9717  138.9873  165.5483 N.3     1  UNL1       -0.2750
      9 C         142.2600  138.2385  157.6899 C.2     1  UNL1        0.2259
     10 O         143.5247  138.1380  156.8896 O.2     1  UNL1       -0.2749
     11 N         142.1426  138.3823  159.1783 N.am    1  UNL1       -0.2734
     12 C         140.7891  138.4694  159.8189 C.3     1  UNL1        0.1000
     13 C         140.6716  138.6131  161.3074 C.3     1  UNL1        0.0666
     14 C         141.9077  138.6697  162.1553 C.ar    1  UNL1        0.0549
     15 C         143.2612  138.5826  161.5147 C.ar    1  UNL1        0.0919
     16 N         144.2937  138.6657  162.5996 N.ar    1  UNL1       -0.2339
     17 C         143.5783  138.8041  163.9107 C.ar    1  UNL1        0.1201
     18 C         144.2242  138.9198  165.2597 C.3     1  UNL1        0.0718
     19 N         142.1037  138.8066  163.6361 N.ar    1  UNL1       -0.3202
     20 C         143.3786  138.4389  160.0262 C.3     1  UNL1        0.1405
     21 C         140.6457  136.9050  156.1519 C.3     1  UNL1        0.0101
     22 C         141.0240  138.1819  156.8420 C.3     1  UNL1        0.0853
     23 C         141.0594  138.8687  164.5223 C.3     1  UNL1        0.0741
     24 C         141.9244  140.0527  164.2060 C.3     1  UNL1        0.0414
     25 C         141.2987  141.3406  163.7590 C.3     1  UNL1        0.0955
     26 C         142.0666  142.6246  163.8668 C.ar    1  UNL1       -0.0022
     27 C         141.6453  143.8201  163.0648 C.ar    1  UNL1       -0.0025
     28 C         142.4131  145.1041  163.1726 C.ar    1  UNL1        0.0020
     29 C         143.6024  145.1927  164.0825 C.ar    1  UNL1        0.0296
     30 C         144.0237  143.9972  164.8845 C.ar    1  UNL1        0.1399
     31 F         145.1797  143.9105  165.8364 F       1  UNL1       -0.2042
     32 C         143.2559  142.7131  164.7767 C.ar    1  UNL1        0.0270
     33 N         139.9051  141.3445  163.2041 N.am    1  UNL1       -0.3021
     34 C         138.7821  141.9386  164.0015 C.2     1  UNL1        0.2232
     35 C         137.3885  141.9425  163.4467 C.3     1  UNL1        0.0946
     36 O         138.6930  142.5949  165.3474 O.2     1  UNL1       -0.2751
     37 H         139.7276  140.9571  162.3166 H       1  UNL1        0.1497
@<TRIPOS>BOND
     1    21    22    1
     2    22     9    1
     3     9    10    2
     4     9    11   am
     5    11    12    1
     6    12    13    1
     7    13    14    1
     8    14    15   ar
     9    15    16   ar
    10    16    17   ar
    11    17    18    1
    12    17    19   ar
    13     1    19    1
    14     1     2    1
    15     3     2    1
    16     3     4    1
    17     4     5    1
    18     6     5    1
    19     6     7    1
    20     6     8    1
    21     8    23    1
    22    23    24    1
    23    25    24    1
    24    25    33    1
    25    33    34   am
    26    34    35    1
    27    34    36    2
    28    25    26    1
    29    26    27   ar
    30    27    28   ar
    31    28    29   ar
    32    29    30   ar
    33    30    31    1
    34    30    32   ar
    35    15    20    1
    36    20    11    1
    37    19    14   ar
    38     7     1    1
    39    32    26   ar
    40     8     3    1
    41    33    37    1
@<TRIPOS>MOLECULE
*****
 37 41 0 0 0
SMALL
GASTEIGER

@<TRIPOS>ATOM
      1 C         140.5133  139.1648  163.0155 C.3     1  UNL1        0.0890
      2 C         140.8531  139.3656  161.5683 C.3     1  UNL1        0.0386
      3 C         139.7577  139.5036  160.5529 C.3     1  UNL1        0.0594
      4 C         138.3993  139.5878  159.9224 C.3     1  UNL1        0.0174
      5 C         137.3744  139.4355  161.0072 C.3     1  UNL1        0.0174
      6 C         138.0997  139.2572  162.3081 C.3     1  UNL1        0.0594
      7 C         139.0782  139.1019  163.4471 C.3     1  UNL1        0.0386
      8 N         139.5725  139.2993  162.0273 N.3     1  UNL1       -0.2750
      9 C         142.0200  139.8258  169.9383 C.2     1  UNL1        0.2259
     10 O         143.2764  139.6099  170.7287 O.2     1  UNL1       -0.2749
     11 N         141.8414  139.6461  168.4598 N.am    1  UNL1       -0.2734
     12 C         140.5062  139.9077  167.8284 C.3     1  UNL1        0.1000
     13 C         140.3276  139.7280  166.3499 C.3     1  UNL1        0.0666
     14 C         141.4843  139.2869  165.5029 C.ar    1  UNL1        0.0549
     15 C         142.8195  139.0253  166.1343 C.ar    1  UNL1        0.0919
     16 N         143.7692  138.6036  165.0525 N.ar    1  UNL1       -0.2339
     17 C         143.0209  138.6045  163.7525 C.ar    1  UNL1        0.1201
     18 C         143.5856  138.2461  162.4098 C.3     1  UNL1        0.0718
     19 N         141.6087  139.0268  164.0309 N.ar    1  UNL1       -0.3202
     20 C         142.9981  139.2050  167.6128 C.3     1  UNL1        0.1405
     21 C         140.6673  141.7231  171.0873 C.3     1  UNL1        0.0101
     22 C         140.8634  140.2669  170.7853 C.3     1  UNL1        0.0853
     23 C         140.6679  139.1613  163.0427 C.3     1  UNL1        0.0741
     24 C         141.0135  140.3167  163.9348 C.3     1  UNL1        0.0414
     25 C         141.1548  141.6939  163.3575 C.3     1  UNL1        0.0955
     26 C         140.0029  142.6530  163.4150 C.ar    1  UNL1       -0.0022
     27 C         139.0556  142.7577  162.2567 C.ar    1  UNL1       -0.0025
     28 C         137.9037  143.7167  162.3141 C.ar    1  UNL1        0.0020
     29 C         137.6991  144.5712  163.5299 C.ar    1  UNL1        0.0296
     30 C         138.6464  144.4666  164.6882 C.ar    1  UNL1        0.1399
     31 F         138.5912  145.2398  165.9723 F       1  UNL1       -0.2042
     32 C         139.7984  143.5075  164.6308 C.ar    1  UNL1        0.0270
     33 N         142.4479  142.1120  162.7228 N.am    1  UNL1       -0.3021
     34 C         143.6850  142.2476  163.5601 C.2     1  UNL1        0.2232
     35 C         144.9782  142.6657  162.9255 C.3     1  UNL1        0.0946
     36 O         143.9842  142.0508  165.0168 O.2     1  UNL1       -0.2751
     37 H         142.4847  142.2974  161.7566 H       1  UNL1        0.1497
@<TRIPOS>BOND
     1    21    22    1
     2    22     9    1
     3     9    10    2
     4     9    11   am
     5    11    12    1
     6    12    13    1
     7    13    14    1
     8    14    15   ar
     9    15    16   ar
    10    16    17   ar
    11    17    18    1
    12    17    19   ar
    13     1    19    1
    14     1     2    1
    15     3     2    1
    16     3     4    1
    17     4     5    1
    18     6     5    1
    19     6     7    1
    20     6     8    1
    21     8    23    1
    22    23    24    1
    23    25    24    1
    24    25    33    1
    25    33    34   am
    26    34    35    1
    27    34    36    2
    28    25    26    1
    29    26    27   ar
    30    27    28   ar
    31    28    29   ar
    32    29    30   ar
    33    30    31    1
    34    30    32   ar
    35    15    20    1
    36    20    11    1
    37    19    14   ar
    38     7     1    1
    39    32    26   ar
    40     8     3    1
    41    33    37    1
@<TRIPOS>MOLECULE
*****
 37 41 0 0 0
SMALL
GASTEIGER

@<TRIPOS>ATOM
      1 C         143.1884  140.8449  166.2833 C.3     1  UNL1        0.0890
      2 C         142.9201  141.8452  167.3684 C.3     1  UNL1        0.0386
      3 C         142.5688  141.3774  168.7496 C.3     1  UNL1        0.0594
      4 C         142.2679  140.4921  169.9225 C.3     1  UNL1        0.0174
      5 C         142.3749  139.0669  169.4671 C.3     1  UNL1        0.0174
      6 C         142.7420  139.0715  168.0127 C.3     1  UNL1        0.0594
      7 C         143.1054  139.3768  166.5795 C.3     1  UNL1        0.0386
      8 N         142.8619  140.4993  167.5693 N.3     1  UNL1       -0.2750
      9 C         143.3278  138.8970  159.4409 C.2     1  UNL1        0.2259
     10 O         143.7539  139.6091  158.1914 O.2     1  UNL1       -0.2749
     11 N         143.3522  139.4364  160.8404 N.am    1  UNL1       -0.2734
     12 C         142.8864  138.5819  161.9818 C.3     1  UNL1        0.1000
     13 C         142.9107  139.1213  163.3812 C.3     1  UNL1        0.0666
     14 C         143.4010  140.5152  163.6393 C.ar    1  UNL1        0.0549
     15 C         143.8668  141.3697  162.4979 C.ar    1  UNL1        0.0919
     16 N         144.2933  142.6954  163.0553 N.ar    1  UNL1       -0.2339
     17 C         144.0911  142.6602  164.5412 C.ar    1  UNL1        0.1201
     18 C         144.3882  143.7764  165.4982 C.3     1  UNL1        0.0718
     19 N         143.5396  141.3127  164.9021 N.ar    1  UNL1       -0.3202
     20 C         143.8424  140.8303  161.0985 C.3     1  UNL1        0.1405
     21 C         142.6264  137.0310  157.7748 C.3     1  UNL1        0.0101
     22 C         142.8376  137.5031  159.1828 C.3     1  UNL1        0.0853
     23 C         143.2131  140.9672  166.1881 C.3     1  UNL1        0.0741
     24 C         142.1793  140.9402  165.1016 C.3     1  UNL1        0.0414
     25 C         140.7665  141.3463  165.4003 C.3     1  UNL1        0.0955
     26 C         140.2109  142.6120  164.8178 C.ar    1  UNL1       -0.0022
     27 C         140.4610  142.9478  163.3775 C.ar    1  UNL1       -0.0025
     28 C         139.9054  144.2134  162.7950 C.ar    1  UNL1        0.0020
     29 C         139.0995  145.1434  163.6529 C.ar    1  UNL1        0.0296
     30 C         138.8494  144.8075  165.0932 C.ar    1  UNL1        0.1399
     31 F         138.0711  145.6177  166.0871 F       1  UNL1       -0.2042
     32 C         139.4050  143.5418  165.6757 C.ar    1  UNL1        0.0270
     33 N         139.9095  140.4866  166.2814 N.am    1  UNL1       -0.3021
     34 C         138.8417  139.6234  165.6774 C.2     1  UNL1        0.2232
     35 C         137.9846  138.7638  166.5585 C.3     1  UNL1        0.0946
     36 O         138.3684  139.3792  164.2751 O.2     1  UNL1       -0.2751
     37 H         140.0477  140.4890  167.2562 H       1  UNL1        0.1497
@<TRIPOS>BOND
     1    21    22    1
     2    22     9    1
     3     9    10    2
     4     9    11   am
     5    11    12    1
     6    12    13    1
     7    13    14    1
     8    14    15   ar
     9    15    16   ar
    10    16    17   ar
    11    17    18    1
    12    17    19   ar
    13     1    19    1
    14     1     2    1
    15     3     2    1
    16     3     4    1
    17     4     5    1
    18     6     5    1
    19     6     7    1
    20     6     8    1
    21     8    23    1
    22    23    24    1
    23    25    24    1
    24    25    33    1
    25    33    34   am
    26    34    35    1
    27    34    36    2
    28    25    26    1
    29    26    27   ar
    30    27    28   ar
    31    28    29   ar
    32    29    30   ar
    33    30    31    1
    34    30    32   ar
    35    15    20    1
    36    20    11    1
    37    19    14   ar
    38     7     1    1
    39    32    26   ar
    40     8     3    1
    41    33    37    1
@<TRIPOS>MOLECULE
*****
 37 41 0 0 0
SMALL
GASTEIGER

@<TRIPOS>ATOM
      1 C         140.4843  139.2686  162.8458 C.3     1  UNL1        0.0890
      2 C         139.0732  138.8856  163.1809 C.3     1  UNL1        0.0386
      3 C         137.9909  139.0369  162.1534 C.3     1  UNL1        0.0594
      4 C         137.2719  139.3445  160.8734 C.3     1  UNL1        0.0174
      5 C         138.2764  139.8742  159.8933 C.3     1  UNL1        0.0174
      6 C         139.6161  139.8939  160.5676 C.3     1  UNL1        0.0594
      7 C         140.8129  139.8029  161.4833 C.3     1  UNL1        0.0386
      8 N         139.4397  139.3765  161.9644 N.3     1  UNL1       -0.2750
      9 C         141.9141  139.8827  169.7892 C.2     1  UNL1        0.2259
     10 O         143.1596  139.6534  170.5932 O.2     1  UNL1       -0.2749
     11 N         141.7517  139.7120  168.3078 N.am    1  UNL1       -0.2734
     12 C         140.4259  139.9867  167.6621 C.3     1  UNL1        0.1000
     13 C         140.2635  139.8160  166.1808 C.3     1  UNL1        0.0666
     14 C         141.4267  139.3707  165.3451 C.ar    1  UNL1        0.0549
     15 C         142.7524  139.0960  165.9908 C.ar    1  UNL1        0.0919
     16 N         143.7118  138.6728  164.9180 N.ar    1  UNL1       -0.2339
     17 C         142.9788  138.6860  163.6093 C.ar    1  UNL1        0.1201
     18 C         143.5566  138.3303  162.2715 C.3     1  UNL1        0.0718
     19 N         141.5666  139.1173  163.8733 N.ar    1  UNL1       -0.3202
     20 C         142.9149  139.2667  167.4721 C.3     1  UNL1        0.1405
     21 C         140.5985  141.7756  170.9876 C.3     1  UNL1        0.0101
     22 C         140.7509  140.3281  170.6249 C.3     1  UNL1        0.0853
     23 C         140.5220  139.2251  162.9918 C.3     1  UNL1        0.0741
     24 C         141.5096  140.3329  163.2096 C.3     1  UNL1        0.0414
     25 C         141.0261  141.7330  163.4462 C.3     1  UNL1        0.0955
     26 C         142.0136  142.8396  163.6709 C.ar    1  UNL1       -0.0022
     27 C         141.9896  144.0558  162.7933 C.ar    1  UNL1       -0.0025
     28 C         142.9769  145.1624  163.0179 C.ar    1  UNL1        0.0020
     29 C         143.9884  145.0528  164.1201 C.ar    1  UNL1        0.0296
     30 C         144.0124  143.8365  164.9977 C.ar    1  UNL1        0.1399
     31 F         144.9485  143.5642  166.1376 F       1  UNL1       -0.2042
     32 C         143.0250  142.7299  164.7731 C.ar    1  UNL1        0.0270
     33 N         139.5552  142.0265  163.4581 N.am    1  UNL1       -0.3021
     34 C         138.9667  142.8656  164.5533 C.2     1  UNL1        0.2232
     35 C         137.4958  143.1591  164.5653 C.3     1  UNL1        0.0946
     36 O         139.5352  143.5532  165.7592 O.2     1  UNL1       -0.2751
     37 H         138.9760  141.6685  162.7470 H       1  UNL1        0.1497
@<TRIPOS>BOND
     1    21    22    1
     2    22     9    1
     3     9    10    2
     4     9    11   am
     5    11    12    1
     6    12    13    1
     7    13    14    1
     8    14    15   ar
     9    15    16   ar
    10    16    17   ar
    11    17    18    1
    12    17    19   ar
    13     1    19    1
    14     1     2    1
    15     3     2    1
    16     3     4    1
    17     4     5    1
    18     6     5    1
    19     6     7    1
    20     6     8    1
    21     8    23    1
    22    23    24    1
    23    25    24    1
    24    25    33    1
    25    33    34   am
    26    34    35    1
    27    34    36    2
    28    25    26    1
    29    26    27   ar
    30    27    28   ar
    31    28    29   ar
    32    29    30   ar
    33    30    31    1
    34    30    32   ar
    35    15    20    1
    36    20    11    1
    37    19    14   ar
    38     7     1    1
    39    32    26   ar
    40     8     3    1
    41    33    37    1
