@<TRIPOS>MOLECULE
*****
 31 33 0 0 0
SMALL
GASTEIGER

@<TRIPOS>ATOM
      1 C         139.3236  140.9637  165.8822 C.ar    1  UNL1        0.1377
      2 C         140.1208  142.0536  166.5351 C.ar    1  UNL1        0.1397
      3 N         140.4334  141.9794  168.0003 N.ar    1  UNL1       -0.2027
      4 C         139.9488  140.8152  168.8126 C.ar    1  UNL1        0.2367
      5 N         139.1516  139.7252  168.1596 N.ar    1  UNL1       -0.1828
      6 C         138.8390  139.7995  166.6944 C.ar    1  UNL1        0.2339
      7 C         137.2729  141.1949  162.4923 C.3     1  UNL1        0.1109
      8 N         137.5855  141.1207  163.9575 N.am    1  UNL1       -0.2990
      9 C         139.0110  141.0379  164.4170 C.2     1  UNL1        0.2532
     10 O         140.1238  141.0293  163.4113 O.2     1  UNL1       -0.2699
     11 H         136.8551  141.1263  164.6176 H       1  UNL1        0.1498
     12 N         140.6055  143.2179  165.7229 N.pl3   1  UNL1       -0.3178
     13 H         140.0295  144.0069  165.6012 H       1  UNL1        0.1482
     14 C         141.9677  143.1799  165.0962 C.3     1  UNL1        0.0882
     15 C         143.1218  142.5829  165.8458 C.3     1  UNL1        0.0212
     16 C         143.6099  141.2075  165.4996 C.3     1  UNL1        0.0017
     17 C         143.1874  139.9294  166.1615 C.3     1  UNL1        0.0001
     18 C         143.9227  138.8007  165.5017 C.3     1  UNL1        0.0000
     19 C         144.7997  139.3811  164.4321 C.3     1  UNL1        0.0000
     20 C         144.6064  140.8686  164.4308 C.3     1  UNL1        0.0001
     21 C         140.2614  140.7409  170.2777 C.1     1  UNL1        0.1401
     22 N         140.5740  140.6667  171.7429 N.1     1  UNL1       -0.1876
     23 O         138.0417  138.7094  166.0415 O.3     1  UNL1       -0.4600
     24 C         138.7387  137.5129  165.4649 C.3     1  UNL1        0.2071
     25 C         139.4824  137.6310  164.1676 C.3     1  UNL1        0.0466
     26 C         140.9800  137.5479  164.1514 C.3     1  UNL1        0.0211
     27 C         141.7237  137.6660  162.8541 C.3     1  UNL1        0.0723
     28 N         140.9698  137.8672  161.5731 N.3     1  UNL1       -0.2715
     29 C         141.7135  137.9853  160.2757 C.3     1  UNL1        0.0896
     30 C         139.4722  137.9503  161.5893 C.3     1  UNL1        0.0723
     31 C         138.7285  137.8322  162.8865 C.3     1  UNL1        0.0211
@<TRIPOS>BOND
     1     7     8    1
     2     8     9   am
     3     9    10    2
     4     9     1    1
     5     1     2   ar
     6     2    12    1
     7    12    14    1
     8    14    15    1
     9    15    16    1
    10    16    17    1
    11    17    18    1
    12    18    19    1
    13    19    20    1
    14     2     3   ar
    15     3     4   ar
    16     4    21    1
    17    21    22    3
    18     4     5   ar
    19     5     6   ar
    20     6    23    1
    21    23    24    1
    22    24    25    1
    23    25    26    1
    24    26    27    1
    25    27    28    1
    26    28    29    1
    27    28    30    1
    28    30    31    1
    29     6     1   ar
    30    31    25    1
    31    20    16    1
    32     8    11    1
    33    12    13    1
@<TRIPOS>MOLECULE
*****
 31 33 0 0 0
SMALL
GASTEIGER

@<TRIPOS>ATOM
      1 C         139.3538  140.8889  166.0572 C.ar    1  UNL1        0.1377
      2 C         140.2065  141.9431  166.6988 C.ar    1  UNL1        0.1397
      3 N         140.5067  141.8740  168.1668 N.ar    1  UNL1       -0.2027
      4 C         139.9543  140.7508  168.9933 C.ar    1  UNL1        0.2367
      5 N         139.1016  139.6967  168.3517 N.ar    1  UNL1       -0.1828
      6 C         138.8013  139.7657  166.8837 C.ar    1  UNL1        0.2339
      7 C         137.3308  141.0802  162.6483 C.3     1  UNL1        0.1109
      8 N         137.6311  141.0111  164.1163 N.am    1  UNL1       -0.2990
      9 C         139.0535  140.9580  164.5892 C.2     1  UNL1        0.2532
     10 O         140.1758  140.9740  163.5941 O.2     1  UNL1       -0.2699
     11 H         136.8945  141.0006  164.7694 H       1  UNL1        0.1498
     12 N         140.7590  143.0664  165.8723 N.pl3   1  UNL1       -0.3178
     13 H         141.7277  143.1255  165.7068 H       1  UNL1        0.1482
     14 C         139.8356  144.0996  165.2980 C.3     1  UNL1        0.0882
     15 C         140.1601  144.7487  163.9851 C.3     1  UNL1        0.0212
     16 C         141.5202  144.5732  163.3776 C.3     1  UNL1        0.0017
     17 C         142.7921  145.1996  163.8673 C.3     1  UNL1        0.0001
     18 C         143.9052  144.7541  162.9660 C.3     1  UNL1        0.0000
     19 C         143.3213  143.8523  161.9191 C.3     1  UNL1        0.0000
     20 C         141.8473  143.7405  162.1735 C.3     1  UNL1        0.0001
     21 C         140.2545  140.6817  170.4613 C.1     1  UNL1        0.1401
     22 N         140.5548  140.6127  171.9293 N.1     1  UNL1       -0.1876
     23 O         137.9485  138.7115  166.2422 O.3     1  UNL1       -0.4600
     24 C         138.5830  137.4766  165.6745 C.3     1  UNL1        0.2071
     25 C         139.4569  137.5733  164.4591 C.3     1  UNL1        0.0466
     26 C         138.8383  137.7160  163.1000 C.3     1  UNL1        0.0211
     27 C         139.7121  137.8128  161.8847 C.3     1  UNL1        0.0723
     28 N         141.2044  137.7667  162.0284 N.3     1  UNL1       -0.2715
     29 C         142.0783  137.8635  160.8130 C.3     1  UNL1        0.0896
     30 C         141.8230  137.6240  163.3874 C.3     1  UNL1        0.0723
     31 C         140.9492  137.5273  164.6028 C.3     1  UNL1        0.0211
@<TRIPOS>BOND
     1     7     8    1
     2     8     9   am
     3     9    10    2
     4     9     1    1
     5     1     2   ar
     6     2    12    1
     7    12    14    1
     8    14    15    1
     9    15    16    1
    10    16    17    1
    11    17    18    1
    12    18    19    1
    13    19    20    1
    14     2     3   ar
    15     3     4   ar
    16     4    21    1
    17    21    22    3
    18     4     5   ar
    19     5     6   ar
    20     6    23    1
    21    23    24    1
    22    24    25    1
    23    25    26    1
    24    26    27    1
    25    27    28    1
    26    28    29    1
    27    28    30    1
    28    30    31    1
    29     6     1   ar
    30    31    25    1
    31    20    16    1
    32     8    11    1
    33    12    13    1
@<TRIPOS>MOLECULE
*****
 31 33 0 0 0
SMALL
GASTEIGER

@<TRIPOS>ATOM
      1 C         138.3444  139.8835  164.1698 C.ar    1  UNL1        0.1377
      2 C         137.7180  141.1080  163.5713 C.ar    1  UNL1        0.1397
      3 N         137.5449  141.2118  162.0850 N.ar    1  UNL1       -0.2027
      4 C         137.9982  140.0911  161.1970 C.ar    1  UNL1        0.2367
      5 N         138.6246  138.8666  161.7955 N.ar    1  UNL1       -0.1828
      6 C         138.7977  138.7628  163.2818 C.ar    1  UNL1        0.2339
      7 C         139.7949  140.4286  167.8233 C.3     1  UNL1        0.1109
      8 N         139.6219  140.5324  166.3370 N.am    1  UNL1       -0.2990
      9 C         138.5174  139.7797  165.6561 C.2     1  UNL1        0.2532
     10 O         137.5861  138.9232  166.4616 O.2     1  UNL1       -0.2699
     11 H         140.2331  141.0946  165.8083 H       1  UNL1        0.1498
     12 N         137.2646  142.2288  164.4593 N.pl3   1  UNL1       -0.3178
     13 H         136.5511  142.0755  165.1201 H       1  UNL1        0.1482
     14 C         137.8983  143.5831  164.3404 C.3     1  UNL1        0.0882
     15 C         139.1834  143.8754  165.0568 C.3     1  UNL1        0.0212
     16 C         140.4859  143.8146  164.3154 C.3     1  UNL1        0.0017
     17 C         141.3161  144.9906  163.8937 C.3     1  UNL1        0.0001
     18 C         142.5302  144.4700  163.1832 C.3     1  UNL1        0.0000
     19 C         142.4505  142.9722  163.1658 C.3     1  UNL1        0.0000
     20 C         141.1870  142.5672  163.8656 C.3     1  UNL1        0.0001
     21 C         137.8251  140.1949  159.7107 C.1     1  UNL1        0.1401
     22 N         137.6520  140.2988  158.2243 N.1     1  UNL1       -0.1876
     23 O         139.4241  137.5382  163.8802 O.3     1  UNL1       -0.4600
     24 C         140.7928  137.1066  163.4441 C.3     1  UNL1        0.2071
     25 C         141.9551  138.0445  163.5841 C.3     1  UNL1        0.0466
     26 C         142.3010  138.6150  164.9275 C.3     1  UNL1        0.0211
     27 C         143.4632  139.5528  165.0675 C.3     1  UNL1        0.0723
     28 N         144.2796  139.9202  163.8640 N.3     1  UNL1       -0.2715
     29 C         145.4419  140.8581  164.0039 C.3     1  UNL1        0.0896
     30 C         143.9337  139.3497  162.5205 C.3     1  UNL1        0.0723
     31 C         142.7715  138.4119  162.3805 C.3     1  UNL1        0.0211
@<TRIPOS>BOND
     1     7     8    1
     2     8     9   am
     3     9    10    2
     4     9     1    1
     5     1     2   ar
     6     2    12    1
     7    12    14    1
     8    14    15    1
     9    15    16    1
    10    16    17    1
    11    17    18    1
    12    18    19    1
    13    19    20    1
    14     2     3   ar
    15     3     4   ar
    16     4    21    1
    17    21    22    3
    18     4     5   ar
    19     5     6   ar
    20     6    23    1
    21    23    24    1
    22    24    25    1
    23    25    26    1
    24    26    27    1
    25    27    28    1
    26    28    29    1
    27    28    30    1
    28    30    31    1
    29     6     1   ar
    30    31    25    1
    31    20    16    1
    32     8    11    1
    33    12    13    1
@<TRIPOS>MOLECULE
*****
 31 33 0 0 0
SMALL
GASTEIGER

@<TRIPOS>ATOM
      1 C         142.9198  138.5383  164.4028 C.ar    1  UNL1        0.1377
      2 C         143.9585  139.0720  163.4614 C.ar    1  UNL1        0.1397
      3 N         143.7831  138.9092  161.9806 N.ar    1  UNL1       -0.2027
      4 C         142.5691  138.2128  161.4412 C.ar    1  UNL1        0.2367
      5 N         141.5304  137.6791  162.3825 N.ar    1  UNL1       -0.1828
      6 C         141.7057  137.8419  163.8633 C.ar    1  UNL1        0.2339
      7 C         142.2874  139.6791  168.1509 C.3     1  UNL1        0.1109
      8 N         142.1121  139.5163  166.6701 N.am    1  UNL1       -0.2990
      9 C         143.0952  138.7010  165.8836 C.2     1  UNL1        0.2532
     10 O         144.2536  138.0484  166.5778 O.2     1  UNL1       -0.2699
     11 H         141.3517  139.9447  166.2145 H       1  UNL1        0.1498
     12 N         145.1726  139.7684  164.0008 N.pl3   1  UNL1       -0.3178
     13 H         145.7655  139.3040  164.6348 H       1  UNL1        0.1482
     14 C         145.4834  141.1725  163.5741 C.3     1  UNL1        0.0882
     15 C         145.1852  142.3193  164.4940 C.3     1  UNL1        0.0212
     16 C         143.9216  143.1092  164.3227 C.3     1  UNL1        0.0017
     17 C         143.8315  144.5538  163.9291 C.3     1  UNL1        0.0001
     18 C         142.3805  144.9307  163.8780 C.3     1  UNL1        0.0000
     19 C         141.5738  143.7189  164.2400 C.3     1  UNL1        0.0000
     20 C         142.5263  142.5932  164.5148 C.3     1  UNL1        0.0001
     21 C         142.3937  138.0501  159.9604 C.1     1  UNL1        0.1401
     22 N         142.2183  137.8873  158.4796 N.1     1  UNL1       -0.1876
     23 O         140.6670  137.3081  164.8047 O.3     1  UNL1       -0.4600
     24 C         139.2227  137.6611  164.6063 C.3     1  UNL1        0.2071
     25 C         138.8370  139.0631  164.2377 C.3     1  UNL1        0.0466
     26 C         138.3666  139.3705  162.8470 C.3     1  UNL1        0.0211
     27 C         137.9809  140.7724  162.4784 C.3     1  UNL1        0.0723
     28 N         138.0657  141.8669  163.5005 N.3     1  UNL1       -0.2715
     29 C         137.6800  143.2689  163.1320 C.3     1  UNL1        0.0896
     30 C         138.5362  141.5595  164.8913 C.3     1  UNL1        0.0723
     31 C         138.9218  140.1576  165.2599 C.3     1  UNL1        0.0211
@<TRIPOS>BOND
     1     7     8    1
     2     8     9   am
     3     9    10    2
     4     9     1    1
     5     1     2   ar
     6     2    12    1
     7    12    14    1
     8    14    15    1
     9    15    16    1
    10    16    17    1
    11    17    18    1
    12    18    19    1
    13    19    20    1
    14     2     3   ar
    15     3     4   ar
    16     4    21    1
    17    21    22    3
    18     4     5   ar
    19     5     6   ar
    20     6    23    1
    21    23    24    1
    22    24    25    1
    23    25    26    1
    24    26    27    1
    25    27    28    1
    26    28    29    1
    27    28    30    1
    28    30    31    1
    29     6     1   ar
    30    31    25    1
    31    20    16    1
    32     8    11    1
    33    12    13    1
@<TRIPOS>MOLECULE
*****
 31 33 0 0 0
SMALL
GASTEIGER

@<TRIPOS>ATOM
      1 C         141.4554  140.8403  165.2499 C.ar    1  UNL1        0.1377
      2 C         142.0439  142.1842  165.5622 C.ar    1  UNL1        0.1397
      3 N         141.6897  142.8786  166.8438 N.ar    1  UNL1       -0.2027
      4 C         140.7471  142.2291  167.8130 C.ar    1  UNL1        0.2367
      5 N         140.1586  140.8851  167.5007 N.ar    1  UNL1       -0.1828
      6 C         140.5128  140.1908  166.2192 C.ar    1  UNL1        0.2339
      7 C         142.8547  138.1206  162.7210 C.3     1  UNL1        0.1109
      8 N         142.5005  138.8150  164.0026 N.am    1  UNL1       -0.2990
      9 C         141.8096  140.1459  163.9684 C.2     1  UNL1        0.2532
     10 O         141.4729  140.7825  162.6526 O.2     1  UNL1       -0.2699
     11 H         142.7216  138.3972  164.8662 H       1  UNL1        0.1498
     12 N         142.9865  142.8338  164.5929 N.pl3   1  UNL1       -0.3178
     13 H         143.9469  142.6192  164.6213 H       1  UNL1        0.1482
     14 C         142.4659  143.8105  163.5805 C.3     1  UNL1        0.0882
     15 C         141.5010  144.8806  163.9977 C.3     1  UNL1        0.0212
     16 C         140.0247  144.6198  163.9488 C.3     1  UNL1        0.0017
     17 C         139.1924  144.4925  162.7074 C.3     1  UNL1        0.0001
     18 C         137.7748  144.2346  163.1242 C.3     1  UNL1        0.0000
     19 C         137.7309  144.2023  164.6233 C.3     1  UNL1        0.0000
     20 C         139.1214  144.4404  165.1329 C.3     1  UNL1        0.0001
     21 C         140.3929  142.9234  169.0946 C.1     1  UNL1        0.1401
     22 N         140.0387  143.6178  170.3761 N.1     1  UNL1       -0.1876
     23 O         139.9243  138.8467  165.9069 O.3     1  UNL1       -0.4600
     24 C         138.5964  138.7517  165.2160 C.3     1  UNL1        0.2071
     25 C         138.4865  139.0719  163.7547 C.3     1  UNL1        0.0466
     26 C         138.9177  138.0633  162.7315 C.3     1  UNL1        0.0211
     27 C         138.8079  138.3835  161.2702 C.3     1  UNL1        0.0723
     28 N         138.2670  139.7121  160.8321 N.3     1  UNL1       -0.2715
     29 C         138.1571  140.0323  159.3707 C.3     1  UNL1        0.0896
     30 C         137.8358  140.7207  161.8553 C.3     1  UNL1        0.0723
     31 C         137.9456  140.4005  163.3166 C.3     1  UNL1        0.0211
@<TRIPOS>BOND
     1     7     8    1
     2     8     9   am
     3     9    10    2
     4     9     1    1
     5     1     2   ar
     6     2    12    1
     7    12    14    1
     8    14    15    1
     9    15    16    1
    10    16    17    1
    11    17    18    1
    12    18    19    1
    13    19    20    1
    14     2     3   ar
    15     3     4   ar
    16     4    21    1
    17    21    22    3
    18     4     5   ar
    19     5     6   ar
    20     6    23    1
    21    23    24    1
    22    24    25    1
    23    25    26    1
    24    26    27    1
    25    27    28    1
    26    28    29    1
    27    28    30    1
    28    30    31    1
    29     6     1   ar
    30    31    25    1
    31    20    16    1
    32     8    11    1
    33    12    13    1
@<TRIPOS>MOLECULE
*****
 31 33 0 0 0
SMALL
GASTEIGER

@<TRIPOS>ATOM
      1 C         141.8538  141.6754  165.7708 C.ar    1  UNL1        0.1377
      2 C         140.9578  142.7586  166.2939 C.ar    1  UNL1        0.1397
      3 N         140.6502  142.8347  167.7600 N.ar    1  UNL1       -0.2027
      4 C         141.2387  141.8276  168.7031 C.ar    1  UNL1        0.2367
      5 N         142.1347  140.7444  168.1800 N.ar    1  UNL1       -0.1828
      6 C         142.4423  140.6683  166.7138 C.ar    1  UNL1        0.2339
      7 C         143.8941  141.4940  162.3716 C.3     1  UNL1        0.1109
      8 N         143.5866  141.5701  163.8378 N.am    1  UNL1       -0.2990
      9 C         142.1614  141.5993  164.3046 C.2     1  UNL1        0.2532
     10 O         141.0438  141.5524  163.3053 O.2     1  UNL1       -0.2699
     11 H         144.3201  141.6008  164.4937 H       1  UNL1        0.1498
     12 N         140.3693  143.7658  165.3508 N.pl3   1  UNL1       -0.3178
     13 H         140.8420  143.9958  164.5184 H       1  UNL1        0.1482
     14 C         139.0606  144.4226  165.6761 C.3     1  UNL1        0.0882
     15 C         137.9206  144.3453  164.7042 C.3     1  UNL1        0.0212
     16 C         137.8623  143.2291  163.7038 C.3     1  UNL1        0.0017
     17 C         137.5596  141.7910  164.0041 C.3     1  UNL1        0.0001
     18 C         137.6067  141.0282  162.7134 C.3     1  UNL1        0.0000
     19 C         137.9385  141.9949  161.6154 C.3     1  UNL1        0.0000
     20 C         138.0965  143.3551  162.2276 C.3     1  UNL1        0.0001
     21 C         140.9311  141.9037  170.1692 C.1     1  UNL1        0.1401
     22 N         140.6236  141.9798  171.6354 N.1     1  UNL1       -0.1876
     23 O         143.3384  139.5850  166.1907 O.3     1  UNL1       -0.4600
     24 C         142.7579  138.2635  165.7824 C.3     1  UNL1        0.2071
     25 C         141.8333  138.1824  164.6040 C.3     1  UNL1        0.0466
     26 C         142.3924  138.1569  163.2123 C.3     1  UNL1        0.0211
     27 C         141.4679  138.0758  162.0339 C.3     1  UNL1        0.0723
     28 N         139.9842  138.0203  162.2472 N.3     1  UNL1       -0.2715
     29 C         139.0596  137.9392  161.0688 C.3     1  UNL1        0.0896
     30 C         139.4251  138.0459  163.6389 C.3     1  UNL1        0.0723
     31 C         140.3496  138.1270  164.8173 C.3     1  UNL1        0.0211
@<TRIPOS>BOND
     1     7     8    1
     2     8     9   am
     3     9    10    2
     4     9     1    1
     5     1     2   ar
     6     2    12    1
     7    12    14    1
     8    14    15    1
     9    15    16    1
    10    16    17    1
    11    17    18    1
    12    18    19    1
    13    19    20    1
    14     2     3   ar
    15     3     4   ar
    16     4    21    1
    17    21    22    3
    18     4     5   ar
    19     5     6   ar
    20     6    23    1
    21    23    24    1
    22    24    25    1
    23    25    26    1
    24    26    27    1
    25    27    28    1
    26    28    29    1
    27    28    30    1
    28    30    31    1
    29     6     1   ar
    30    31    25    1
    31    20    16    1
    32     8    11    1
    33    12    13    1
@<TRIPOS>MOLECULE
*****
 31 33 0 0 0
SMALL
GASTEIGER

@<TRIPOS>ATOM
      1 C         142.8105  138.9310  163.2099 C.ar    1  UNL1        0.1377
      2 C         143.9458  139.5928  163.9332 C.ar    1  UNL1        0.1397
      3 N         143.9369  139.6708  165.4312 N.ar    1  UNL1       -0.2027
      4 C         142.7928  139.0871  166.2058 C.ar    1  UNL1        0.2367
      5 N         141.6575  138.4253  165.4825 N.ar    1  UNL1       -0.1828
      6 C         141.6664  138.3473  163.9845 C.ar    1  UNL1        0.2339
      7 C         142.7634  137.4406  159.5321 C.3     1  UNL1        0.1109
      8 N         142.7545  137.5186  161.0300 N.am    1  UNL1       -0.2990
      9 C         142.8194  138.8530  161.7120 C.2     1  UNL1        0.2532
     10 O         142.8932  140.1095  160.8959 O.2     1  UNL1       -0.2699
     11 H         142.7061  136.6940  161.5656 H       1  UNL1        0.1498
     12 N         145.0900  140.1766  163.1586 N.pl3   1  UNL1       -0.3178
     13 H         145.7364  139.5828  162.7126 H       1  UNL1        0.1482
     14 C         145.2494  141.6650  163.0634 C.3     1  UNL1        0.0882
     15 C         144.8630  142.5363  164.2217 C.3     1  UNL1        0.0212
     16 C         143.6202  143.3729  164.1490 C.3     1  UNL1        0.0017
     17 C         142.2251  142.9068  164.4427 C.3     1  UNL1        0.0001
     18 C         141.2969  144.0684  164.2450 C.3     1  UNL1        0.0000
     19 C         142.1184  145.2526  163.8290 C.3     1  UNL1        0.0000
     20 C         143.5542  144.8227  163.7697 C.3     1  UNL1        0.0001
     21 C         142.7839  139.1651  167.7037 C.1     1  UNL1        0.1401
     22 N         142.7750  139.2431  169.2017 N.1     1  UNL1       -0.1876
     23 O         140.5310  137.6855  163.2612 O.3     1  UNL1       -0.4600
     24 C         139.1220  138.1404  163.5014 C.3     1  UNL1        0.2071
     25 C         138.7756  139.5961  163.3966 C.3     1  UNL1        0.0466
     26 C         138.4548  140.3816  164.6336 C.3     1  UNL1        0.0211
     27 C         138.1084  141.8373  164.5289 C.3     1  UNL1        0.0723
     28 N         138.0828  142.5074  163.1872 N.3     1  UNL1       -0.2715
     29 C         137.7364  143.9632  163.0824 C.3     1  UNL1        0.0896
     30 C         138.4036  141.7219  161.9502 C.3     1  UNL1        0.0723
     31 C         138.7500  140.2663  162.0550 C.3     1  UNL1        0.0211
@<TRIPOS>BOND
     1     7     8    1
     2     8     9   am
     3     9    10    2
     4     9     1    1
     5     1     2   ar
     6     2    12    1
     7    12    14    1
     8    14    15    1
     9    15    16    1
    10    16    17    1
    11    17    18    1
    12    18    19    1
    13    19    20    1
    14     2     3   ar
    15     3     4   ar
    16     4    21    1
    17    21    22    3
    18     4     5   ar
    19     5     6   ar
    20     6    23    1
    21    23    24    1
    22    24    25    1
    23    25    26    1
    24    26    27    1
    25    27    28    1
    26    28    29    1
    27    28    30    1
    28    30    31    1
    29     6     1   ar
    30    31    25    1
    31    20    16    1
    32     8    11    1
    33    12    13    1
@<TRIPOS>MOLECULE
*****
 31 33 0 0 0
SMALL
GASTEIGER

@<TRIPOS>ATOM
      1 C         142.0706  144.3007  162.4943 C.ar    1  UNL1        0.1377
      2 C         140.7799  145.0609  162.4161 C.ar    1  UNL1        0.1397
      3 N         140.2546  145.5121  161.0855 N.ar    1  UNL1       -0.2027
      4 C         141.0201  145.2032  159.8331 C.ar    1  UNL1        0.2367
      5 N         142.3108  144.4430  159.9113 N.ar    1  UNL1       -0.1828
      6 C         142.8360  143.9918  161.2418 C.ar    1  UNL1        0.2339
      7 C         144.5676  143.5981  165.4977 C.3     1  UNL1        0.1109
      8 N         144.0424  144.0494  164.1671 N.am    1  UNL1       -0.2990
      9 C         142.5958  143.8494  163.8249 C.2     1  UNL1        0.2532
     10 O         141.6744  143.1981  164.8132 O.2     1  UNL1       -0.2699
     11 H         144.6472  144.4768  163.5185 H       1  UNL1        0.1498
     12 N         140.0143  145.3698  163.6685 N.pl3   1  UNL1       -0.3178
     13 H         140.4511  145.8552  164.4053 H       1  UNL1        0.1482
     14 C         138.5834  144.9392  163.7984 C.3     1  UNL1        0.0882
     15 C         138.2078  143.8713  164.7826 C.3     1  UNL1        0.0212
     16 C         138.1486  142.4372  164.3471 C.3     1  UNL1        0.0017
     17 C         137.5495  141.9277  163.0698 C.3     1  UNL1        0.0001
     18 C         137.7087  140.4364  163.0456 C.3     1  UNL1        0.0000
     19 C         138.4062  140.0241  164.3080 C.3     1  UNL1        0.0000
     20 C         138.6781  141.2607  165.1123 C.3     1  UNL1        0.0001
     21 C         140.4949  145.6545  158.5025 C.1     1  UNL1        0.1401
     22 N         139.9697  146.1058  157.1719 N.1     1  UNL1       -0.1876
     23 O         144.1268  143.2315  161.3200 O.3     1  UNL1       -0.4600
     24 C         144.1271  141.7380  161.1815 C.3     1  UNL1        0.2071
     25 C         143.9370  140.8724  162.3918 C.3     1  UNL1        0.0466
     26 C         142.5808  140.3167  162.7108 C.3     1  UNL1        0.0211
     27 C         142.3906  139.4512  163.9211 C.3     1  UNL1        0.0723
     28 N         143.5567  139.1414  164.8123 N.3     1  UNL1       -0.2715
     29 C         143.3665  138.2759  166.0226 C.3     1  UNL1        0.0896
     30 C         144.9129  139.6972  164.4932 C.3     1  UNL1        0.0723
     31 C         145.1031  140.5627  163.2830 C.3     1  UNL1        0.0211
@<TRIPOS>BOND
     1     7     8    1
     2     8     9   am
     3     9    10    2
     4     9     1    1
     5     1     2   ar
     6     2    12    1
     7    12    14    1
     8    14    15    1
     9    15    16    1
    10    16    17    1
    11    17    18    1
    12    18    19    1
    13    19    20    1
    14     2     3   ar
    15     3     4   ar
    16     4    21    1
    17    21    22    3
    18     4     5   ar
    19     5     6   ar
    20     6    23    1
    21    23    24    1
    22    24    25    1
    23    25    26    1
    24    26    27    1
    25    27    28    1
    26    28    29    1
    27    28    30    1
    28    30    31    1
    29     6     1   ar
    30    31    25    1
    31    20    16    1
    32     8    11    1
    33    12    13    1
@<TRIPOS>MOLECULE
*****
 31 33 0 0 0
SMALL
GASTEIGER

@<TRIPOS>ATOM
      1 C         140.9246  141.7678  165.8613 C.ar    1  UNL1        0.1377
      2 C         140.1875  140.7179  166.6385 C.ar    1  UNL1        0.1397
      3 N         140.7983  140.1357  167.8787 N.ar    1  UNL1       -0.2027
      4 C         142.1462  140.6034  168.3416 C.ar    1  UNL1        0.2367
      5 N         142.8833  141.6533  167.5643 N.ar    1  UNL1       -0.1828
      6 C         142.2726  142.2355  166.3241 C.ar    1  UNL1        0.2339
      7 C         139.6083  144.4204  163.2191 C.3     1  UNL1        0.1109
      8 N         140.2191  143.8382  164.4593 N.am    1  UNL1       -0.2990
      9 C         140.3138  142.3500  164.6211 C.2     1  UNL1        0.2532
     10 O         139.7978  141.4440  163.5428 O.2     1  UNL1       -0.2699
     11 H         140.5578  144.4329  165.1671 H       1  UNL1        0.1498
     12 N         138.8395  140.2501  166.1757 N.pl3   1  UNL1       -0.3178
     13 H         138.3286  140.7860  165.5268 H       1  UNL1        0.1482
     14 C         138.2699  138.9660  166.7015 C.3     1  UNL1        0.0882
     15 C         138.3430  137.7180  165.8724 C.3     1  UNL1        0.0212
     16 C         139.2480  137.6633  164.6775 C.3     1  UNL1        0.0017
     17 C         138.8418  137.8961  163.2525 C.3     1  UNL1        0.0001
     18 C         140.0609  137.7429  162.3920 C.3     1  UNL1        0.0000
     19 C         141.2206  137.4154  163.2853 C.3     1  UNL1        0.0000
     20 C         140.7182  137.3663  164.6978 C.3     1  UNL1        0.0001
     21 C         142.7570  140.0212  169.5817 C.1     1  UNL1        0.1401
     22 N         143.3677  139.4389  170.8219 N.1     1  UNL1       -0.1876
     23 O         143.0098  143.2855  165.5468 O.3     1  UNL1       -0.4600
     24 C         144.2083  142.9088  164.7273 C.3     1  UNL1        0.2071
     25 C         144.1420  141.7331  163.7980 C.3     1  UNL1        0.0466
     26 C         144.6427  140.3926  164.2477 C.3     1  UNL1        0.0211
     27 C         144.5765  139.2169  163.3186 C.3     1  UNL1        0.0723
     28 N         144.0095  139.3818  161.9397 N.3     1  UNL1       -0.2715
     29 C         143.9433  138.2061  161.0104 C.3     1  UNL1        0.0896
     30 C         143.5088  140.7223  161.4900 C.3     1  UNL1        0.0723
     31 C         143.5750  141.8980  162.4192 C.3     1  UNL1        0.0211
@<TRIPOS>BOND
     1     7     8    1
     2     8     9   am
     3     9    10    2
     4     9     1    1
     5     1     2   ar
     6     2    12    1
     7    12    14    1
     8    14    15    1
     9    15    16    1
    10    16    17    1
    11    17    18    1
    12    18    19    1
    13    19    20    1
    14     2     3   ar
    15     3     4   ar
    16     4    21    1
    17    21    22    3
    18     4     5   ar
    19     5     6   ar
    20     6    23    1
    21    23    24    1
    22    24    25    1
    23    25    26    1
    24    26    27    1
    25    27    28    1
    26    28    29    1
    27    28    30    1
    28    30    31    1
    29     6     1   ar
    30    31    25    1
    31    20    16    1
    32     8    11    1
    33    12    13    1
