@<TRIPOS>MOLECULE
*****
 28 31 0 0 0
SMALL
GASTEIGER

@<TRIPOS>ATOM
      1 C         140.9672  141.7538  171.4141 C.3     1  UNL1        0.0307
      2 C         141.0305  141.2011  170.0211 C.ar    1  UNL1       -0.0242
      3 C         139.8117  140.5820  169.4038 C.ar    1  UNL1        0.0160
      4 C         139.8749  140.0293  168.0108 C.ar    1  UNL1        0.0980
      5 N         138.8441  139.3653  167.1466 N.ar    1  UNL1       -0.2310
      6 C         139.4892  139.0214  165.8368 C.ar    1  UNL1        0.1205
      7 N         140.9187  139.4728  165.8915 N.ar    1  UNL1       -0.3107
      8 C         141.1570  140.0957  167.2350 C.ar    1  UNL1        0.0785
      9 C         142.3758  140.7149  167.8523 C.ar    1  UNL1        0.0142
     10 C         142.3126  141.2676  169.2454 C.ar    1  UNL1       -0.0243
     11 C         143.5315  141.8868  169.8627 C.3     1  UNL1        0.0307
     12 C         138.8221  138.3448  164.6761 C.3     1  UNL1        0.0640
     13 C         138.3834  139.1504  163.4894 C.3     1  UNL1        0.0102
     14 C         138.0500  138.4635  162.1983 C.3     1  UNL1        0.0176
     15 C         137.6113  139.2691  161.0115 C.3     1  UNL1        0.0685
     16 N         137.5061  140.7618  161.1158 N.3     1  UNL1       -0.2985
     17 C         137.8395  141.4488  162.4069 C.3     1  UNL1        0.0540
     18 C         137.7343  142.9414  162.5112 C.3     1  UNL1        0.0171
     19 C         138.2782  140.6431  163.5937 C.3     1  UNL1        0.0162
     20 H         136.5408  141.0052  160.8935 H       1  UNL1        0.1232
     21 C         141.9319  139.3270  164.7951 C.3     1  UNL1        0.1339
     22 C         142.5873  140.5440  164.2127 C.ar    1  UNL1        0.0005
     23 C         144.0629  140.7543  164.3810 C.ar    1  UNL1       -0.0015
     24 C         144.7184  141.9713  163.7987 C.ar    1  UNL1        0.0111
     25 C         143.8982  142.9781  163.0479 C.ar    1  UNL1        0.0577
     26 CL        144.5536  144.1952  162.4655 Cl      1  UNL1       -0.0822
     27 C         142.4226  142.7679  162.8795 C.ar    1  UNL1        0.0111
     28 C         141.7671  141.5508  163.4619 C.ar    1  UNL1       -0.0015
@<TRIPOS>BOND
     1     1     2    1
     2     2     3   ar
     3     3     4   ar
     4     4     5   ar
     5     5     6   ar
     6     6    12    1
     7    12    13    1
     8    13    14    1
     9    14    15    1
    10    15    16    1
    11    16    17    1
    12    17    18    1
    13    17    19    1
    14     6     7   ar
    15     7    21    1
    16    21    22    1
    17    22    23   ar
    18    23    24   ar
    19    24    25   ar
    20    25    26    1
    21    25    27   ar
    22    27    28   ar
    23     7     8   ar
    24     8     9   ar
    25     9    10   ar
    26    10    11    1
    27    10     2   ar
    28     8     4   ar
    29    19    13    1
    30    28    22   ar
    31    16    20    1
@<TRIPOS>MOLECULE
*****
 28 31 0 0 0
SMALL
GASTEIGER

@<TRIPOS>ATOM
      1 C         140.9380  141.0603  171.4902 C.3     1  UNL1        0.0307
      2 C         141.3642  141.1117  170.0530 C.ar    1  UNL1       -0.0242
      3 C         142.0155  139.9176  169.4206 C.ar    1  UNL1        0.0160
      4 C         142.4417  139.9691  167.9834 C.ar    1  UNL1        0.0980
      5 N         143.1030  138.9567  167.0957 N.ar    1  UNL1       -0.2310
      6 C         143.2865  139.5766  165.7422 C.ar    1  UNL1        0.1205
      7 N         142.7388  140.9721  165.7934 N.ar    1  UNL1       -0.3107
      8 C         142.2167  141.2146  167.1785 C.ar    1  UNL1        0.0785
      9 C         141.5654  142.4087  167.8108 C.ar    1  UNL1        0.0142
     10 C         141.1392  142.3573  169.2481 C.ar    1  UNL1       -0.0243
     11 C         140.4878  143.5515  169.8804 C.3     1  UNL1        0.0307
     12 C         143.9086  138.9169  164.5473 C.3     1  UNL1        0.0640
     13 C         143.0526  138.5099  163.3848 C.3     1  UNL1        0.0102
     14 C         143.6752  138.2763  162.0403 C.3     1  UNL1        0.0176
     15 C         142.8191  137.8692  160.8778 C.3     1  UNL1        0.0685
     16 N         141.3403  137.6958  161.0598 N.3     1  UNL1       -0.2985
     17 C         140.7176  137.9294  162.4043 C.3     1  UNL1        0.0540
     18 C         139.2389  137.7560  162.5863 C.3     1  UNL1        0.0171
     19 C         141.5738  138.3364  163.5668 C.3     1  UNL1        0.0162
     20 H         141.1220  136.7347  160.7972 H       1  UNL1        0.1232
     21 C         142.7169  141.9528  164.6586 C.3     1  UNL1        0.1339
     22 C         141.4260  142.5978  164.2494 C.ar    1  UNL1        0.0005
     23 C         140.2260  141.7494  163.9486 C.ar    1  UNL1       -0.0015
     24 C         138.9350  142.3943  163.5394 C.ar    1  UNL1        0.0111
     25 C         138.8440  143.8876  163.4310 C.ar    1  UNL1        0.0577
     26 CL        137.5530  144.5326  163.0218 Cl      1  UNL1       -0.0822
     27 C         140.0438  144.7360  163.7318 C.ar    1  UNL1        0.0111
     28 C         141.3349  144.0911  164.1411 C.ar    1  UNL1       -0.0015
@<TRIPOS>BOND
     1     1     2    1
     2     2     3   ar
     3     3     4   ar
     4     4     5   ar
     5     5     6   ar
     6     6    12    1
     7    12    13    1
     8    13    14    1
     9    14    15    1
    10    15    16    1
    11    16    17    1
    12    17    18    1
    13    17    19    1
    14     6     7   ar
    15     7    21    1
    16    21    22    1
    17    22    23   ar
    18    23    24   ar
    19    24    25   ar
    20    25    26    1
    21    25    27   ar
    22    27    28   ar
    23     7     8   ar
    24     8     9   ar
    25     9    10   ar
    26    10    11    1
    27    10     2   ar
    28     8     4   ar
    29    19    13    1
    30    28    22   ar
    31    16    20    1
@<TRIPOS>MOLECULE
*****
 28 31 0 0 0
SMALL
GASTEIGER

@<TRIPOS>ATOM
      1 C         142.2336  139.3688  169.7072 C.3     1  UNL1        0.0307
      2 C         141.6413  140.2831  168.6761 C.ar    1  UNL1       -0.0242
      3 C         140.5123  139.8065  167.8111 C.ar    1  UNL1        0.0160
      4 C         139.9200  140.7208  166.7800 C.ar    1  UNL1        0.0980
      5 N         138.8089  140.5313  165.7901 N.ar    1  UNL1       -0.2310
      6 C         138.6589  141.8050  165.0123 C.ar    1  UNL1        0.1205
      7 N         139.6772  142.7817  165.5214 N.ar    1  UNL1       -0.3107
      8 C         140.4565  142.1116  166.6139 C.ar    1  UNL1        0.0785
      9 C         141.5855  142.5882  167.4789 C.ar    1  UNL1        0.0142
     10 C         142.1778  141.6739  168.5100 C.ar    1  UNL1       -0.0243
     11 C         143.3068  142.1505  169.3751 C.3     1  UNL1        0.0307
     12 C         137.6651  142.0577  163.9175 C.3     1  UNL1        0.0640
     13 C         137.8892  141.4777  162.5525 C.3     1  UNL1        0.0102
     14 C         137.8255  139.9930  162.3487 C.3     1  UNL1        0.0176
     15 C         138.0497  139.4130  160.9837 C.3     1  UNL1        0.0685
     16 N         138.3376  140.3177  159.8224 N.3     1  UNL1       -0.2985
     17 C         138.4013  141.8024  160.0261 C.3     1  UNL1        0.0540
     18 C         138.6891  142.7071  158.8648 C.3     1  UNL1        0.0171
     19 C         138.1771  142.3824  161.3912 C.3     1  UNL1        0.0162
     20 H         137.6099  140.1466  159.1284 H       1  UNL1        0.1232
     21 C         139.8804  144.1826  165.0252 C.3     1  UNL1        0.1339
     22 C         140.2784  144.4228  163.5990 C.ar    1  UNL1        0.0005
     23 C         141.3929  143.6269  162.9871 C.ar    1  UNL1       -0.0015
     24 C         141.7909  143.8670  161.5610 C.ar    1  UNL1        0.0111
     25 C         141.0744  144.9031  160.7467 C.ar    1  UNL1        0.0577
     26 CL        141.4724  145.1433  159.3206 Cl      1  UNL1       -0.0822
     27 C         139.9599  145.6990  161.3585 C.ar    1  UNL1        0.0111
     28 C         139.5618  145.4589  162.7847 C.ar    1  UNL1       -0.0015
@<TRIPOS>BOND
     1     1     2    1
     2     2     3   ar
     3     3     4   ar
     4     4     5   ar
     5     5     6   ar
     6     6    12    1
     7    12    13    1
     8    13    14    1
     9    14    15    1
    10    15    16    1
    11    16    17    1
    12    17    18    1
    13    17    19    1
    14     6     7   ar
    15     7    21    1
    16    21    22    1
    17    22    23   ar
    18    23    24   ar
    19    24    25   ar
    20    25    26    1
    21    25    27   ar
    22    27    28   ar
    23     7     8   ar
    24     8     9   ar
    25     9    10   ar
    26    10    11    1
    27    10     2   ar
    28     8     4   ar
    29    19    13    1
    30    28    22   ar
    31    16    20    1
@<TRIPOS>MOLECULE
*****
 28 31 0 0 0
SMALL
GASTEIGER

@<TRIPOS>ATOM
      1 C         141.0936  141.7252  171.8391 C.3     1  UNL1        0.0307
      2 C         141.4152  141.6003  170.3793 C.ar    1  UNL1       -0.0242
      3 C         142.0403  140.3420  169.8540 C.ar    1  UNL1        0.0160
      4 C         142.3619  140.2172  168.3942 C.ar    1  UNL1        0.0980
      5 N         142.9755  139.1074  167.5930 N.ar    1  UNL1       -0.2310
      6 C         143.0512  139.5549  166.1633 C.ar    1  UNL1        0.1205
      7 N         142.4843  140.9412  166.0810 N.ar    1  UNL1       -0.3107
      8 C         142.0583  141.3505  167.4597 C.ar    1  UNL1        0.0785
      9 C         141.4332  142.6088  167.9850 C.ar    1  UNL1        0.0142
     10 C         141.1116  142.7336  169.4448 C.ar    1  UNL1       -0.0243
     11 C         140.4864  143.9920  169.9701 C.3     1  UNL1        0.0307
     12 C         143.5978  138.7563  165.0172 C.3     1  UNL1        0.0640
     13 C         142.7061  138.3835  163.8701 C.3     1  UNL1        0.0102
     14 C         143.2765  138.2503  162.4892 C.3     1  UNL1        0.0176
     15 C         142.3848  137.8774  161.3421 C.3     1  UNL1        0.0685
     16 N         140.9226  137.6378  161.5760 N.3     1  UNL1       -0.2985
     17 C         140.3522  137.7710  162.9569 C.3     1  UNL1        0.0540
     18 C         138.8900  137.5314  163.1907 C.3     1  UNL1        0.0171
     19 C         141.2440  138.1439  164.1040 C.3     1  UNL1        0.0162
     20 H         140.7272  136.6854  161.2673 H       1  UNL1        0.1232
     21 C         142.3645  141.7724  164.8381 C.3     1  UNL1        0.1339
     22 C         141.2042  141.5700  163.9093 C.ar    1  UNL1        0.0005
     23 C         141.4307  141.5113  162.4277 C.ar    1  UNL1       -0.0015
     24 C         140.2704  141.3089  161.4989 C.ar    1  UNL1        0.0111
     25 C         138.8835  141.1651  162.0517 C.ar    1  UNL1        0.0577
     26 CL        137.7231  140.9627  161.1230 Cl      1  UNL1       -0.0822
     27 C         138.6568  141.2237  163.5333 C.ar    1  UNL1        0.0111
     28 C         139.8172  141.4262  164.4622 C.ar    1  UNL1       -0.0015
@<TRIPOS>BOND
     1     1     2    1
     2     2     3   ar
     3     3     4   ar
     4     4     5   ar
     5     5     6   ar
     6     6    12    1
     7    12    13    1
     8    13    14    1
     9    14    15    1
    10    15    16    1
    11    16    17    1
    12    17    18    1
    13    17    19    1
    14     6     7   ar
    15     7    21    1
    16    21    22    1
    17    22    23   ar
    18    23    24   ar
    19    24    25   ar
    20    25    26    1
    21    25    27   ar
    22    27    28   ar
    23     7     8   ar
    24     8     9   ar
    25     9    10   ar
    26    10    11    1
    27    10     2   ar
    28     8     4   ar
    29    19    13    1
    30    28    22   ar
    31    16    20    1
@<TRIPOS>MOLECULE
*****
 28 31 0 0 0
SMALL
GASTEIGER

@<TRIPOS>ATOM
      1 C         143.2079  139.8924  171.0923 C.3     1  UNL1        0.0307
      2 C         142.5330  140.4479  169.8733 C.ar    1  UNL1       -0.0242
      3 C         141.3549  139.7355  169.2780 C.ar    1  UNL1        0.0160
      4 C         140.6800  140.2910  168.0590 C.ar    1  UNL1        0.0980
      5 N         139.5070  139.8129  167.2555 N.ar    1  UNL1       -0.2310
      6 C         139.2852  140.7855  166.1353 C.ar    1  UNL1        0.1205
      7 N         140.3212  141.8647  166.2465 N.ar    1  UNL1       -0.3107
      8 C         141.1832  141.5590  167.4354 C.ar    1  UNL1        0.0785
      9 C         142.3612  142.2715  168.0308 C.ar    1  UNL1        0.0142
     10 C         143.0362  141.7159  169.2497 C.ar    1  UNL1       -0.0243
     11 C         144.2143  142.4285  169.8451 C.3     1  UNL1        0.0307
     12 C         138.2154  140.6949  165.0878 C.3     1  UNL1        0.0640
     13 C         138.4076  139.8070  163.8942 C.3     1  UNL1        0.0102
     14 C         139.0529  138.4626  164.0557 C.3     1  UNL1        0.0176
     15 C         139.2451  137.5747  162.8622 C.3     1  UNL1        0.0685
     16 N         138.7921  138.0312  161.5070 N.3     1  UNL1       -0.2985
     17 C         138.1469  139.3757  161.3455 C.3     1  UNL1        0.0540
     18 C         137.6939  139.8323  159.9904 C.3     1  UNL1        0.0171
     19 C         137.9546  140.2636  162.5391 C.3     1  UNL1        0.0162
     20 H         138.1205  137.3402  161.1728 H       1  UNL1        0.1232
     21 C         140.4691  143.0426  165.3298 C.3     1  UNL1        0.1339
     22 C         141.4798  143.0087  164.2220 C.ar    1  UNL1        0.0005
     23 C         142.1916  144.2655  163.8172 C.ar    1  UNL1       -0.0015
     24 C         143.2024  144.2316  162.7095 C.ar    1  UNL1        0.0111
     25 C         143.5014  142.9408  162.0063 C.ar    1  UNL1        0.0577
     26 CL        144.5122  142.9068  160.8986 Cl      1  UNL1       -0.0822
     27 C         142.7897  141.6839  162.4110 C.ar    1  UNL1        0.0111
     28 C         141.7789  141.7179  163.5189 C.ar    1  UNL1       -0.0015
@<TRIPOS>BOND
     1     1     2    1
     2     2     3   ar
     3     3     4   ar
     4     4     5   ar
     5     5     6   ar
     6     6    12    1
     7    12    13    1
     8    13    14    1
     9    14    15    1
    10    15    16    1
    11    16    17    1
    12    17    18    1
    13    17    19    1
    14     6     7   ar
    15     7    21    1
    16    21    22    1
    17    22    23   ar
    18    23    24   ar
    19    24    25   ar
    20    25    26    1
    21    25    27   ar
    22    27    28   ar
    23     7     8   ar
    24     8     9   ar
    25     9    10   ar
    26    10    11    1
    27    10     2   ar
    28     8     4   ar
    29    19    13    1
    30    28    22   ar
    31    16    20    1
@<TRIPOS>MOLECULE
*****
 28 31 0 0 0
SMALL
GASTEIGER

@<TRIPOS>ATOM
      1 C         141.9191  145.7813  157.0817 C.3     1  UNL1        0.0307
      2 C         141.1471  144.8585  157.9774 C.ar    1  UNL1       -0.0242
      3 C         140.6373  145.3495  159.2999 C.ar    1  UNL1        0.0160
      4 C         139.8653  144.4267  160.1957 C.ar    1  UNL1        0.0980
      5 N         139.2425  144.6266  161.5456 N.ar    1  UNL1       -0.2310
      6 C         138.5954  143.3362  161.9532 C.ar    1  UNL1        0.1205
      7 N         138.8183  142.3389  160.8552 N.ar    1  UNL1       -0.3107
      8 C         139.6031  143.0128  159.7690 C.ar    1  UNL1        0.0785
      9 C         140.1129  142.5217  158.4465 C.ar    1  UNL1        0.0142
     10 C         140.8849  143.4446  157.5508 C.ar    1  UNL1       -0.0243
     11 C         141.3947  142.9534  156.2283 C.3     1  UNL1        0.0307
     12 C         137.8553  143.0869  163.2339 C.3     1  UNL1        0.0640
     13 C         138.5504  142.4213  164.3844 C.3     1  UNL1        0.0102
     14 C         139.6805  143.1181  165.0826 C.3     1  UNL1        0.0176
     15 C         140.3756  142.4525  166.2331 C.3     1  UNL1        0.0685
     16 N         139.9406  141.0900  166.6855 N.3     1  UNL1       -0.2985
     17 C         138.8106  140.3933  165.9874 C.3     1  UNL1        0.0540
     18 C         138.3756  139.0309  166.4397 C.3     1  UNL1        0.0171
     19 C         138.1155  141.0589  164.8368 C.3     1  UNL1        0.0162
     20 H         139.6723  141.1770  167.6657 H       1  UNL1        0.1232
     21 C         138.3402  140.9171  160.8451 C.3     1  UNL1        0.1339
     22 C         139.0117  139.8939  161.7123 C.ar    1  UNL1        0.0005
     23 C         138.2678  138.6600  162.1297 C.ar    1  UNL1       -0.0015
     24 C         138.9392  137.6367  162.9969 C.ar    1  UNL1        0.0111
     25 C         140.3545  137.8472  163.4468 C.ar    1  UNL1        0.0577
     26 CL        141.0260  136.8240  164.3140 Cl      1  UNL1       -0.0822
     27 C         141.0985  139.0811  163.0295 C.ar    1  UNL1        0.0111
     28 C         140.4271  140.1044  162.1622 C.ar    1  UNL1       -0.0015
@<TRIPOS>BOND
     1     1     2    1
     2     2     3   ar
     3     3     4   ar
     4     4     5   ar
     5     5     6   ar
     6     6    12    1
     7    12    13    1
     8    13    14    1
     9    14    15    1
    10    15    16    1
    11    16    17    1
    12    17    18    1
    13    17    19    1
    14     6     7   ar
    15     7    21    1
    16    21    22    1
    17    22    23   ar
    18    23    24   ar
    19    24    25   ar
    20    25    26    1
    21    25    27   ar
    22    27    28   ar
    23     7     8   ar
    24     8     9   ar
    25     9    10   ar
    26    10    11    1
    27    10     2   ar
    28     8     4   ar
    29    19    13    1
    30    28    22   ar
    31    16    20    1
@<TRIPOS>MOLECULE
*****
 28 31 0 0 0
SMALL
GASTEIGER

@<TRIPOS>ATOM
      1 C         142.1080  142.2980  170.6437 C.3     1  UNL1        0.0307
      2 C         141.6584  141.4509  169.4903 C.ar    1  UNL1       -0.0242
      3 C         142.6589  140.9565  168.4880 C.ar    1  UNL1        0.0160
      4 C         142.2093  140.1093  167.3347 C.ar    1  UNL1        0.0980
      5 N         142.9600  139.4817  166.1977 N.ar    1  UNL1       -0.2310
      6 C         141.9738  138.7411  165.3440 C.ar    1  UNL1        0.1205
      7 N         140.6137  138.9109  165.9533 N.ar    1  UNL1       -0.3107
      8 C         140.7593  139.7566  167.1836 C.ar    1  UNL1        0.0785
      9 C         139.7588  140.2509  168.1859 C.ar    1  UNL1        0.0142
     10 C         140.2084  141.0981  169.3393 C.ar    1  UNL1       -0.0243
     11 C         139.2078  141.5925  170.3416 C.3     1  UNL1        0.0307
     12 C         142.2918  137.9665  164.0994 C.3     1  UNL1        0.0640
     13 C         142.5127  138.6879  162.8029 C.3     1  UNL1        0.0102
     14 C         143.4719  138.1350  161.7909 C.3     1  UNL1        0.0176
     15 C         143.6927  138.8564  160.4945 C.3     1  UNL1        0.0685
     16 N         142.9543  140.1307  160.2100 N.3     1  UNL1       -0.2985
     17 C         141.9951  140.6836  161.2220 C.3     1  UNL1        0.0540
     18 C         141.2567  141.9579  160.9376 C.3     1  UNL1        0.0171
     19 C         141.7743  139.9622  162.5185 C.3     1  UNL1        0.0162
     20 H         142.4226  139.9779  159.3531 H       1  UNL1        0.1232
     21 C         139.3329  138.3361  165.4251 C.3     1  UNL1        0.1339
     22 C         138.8296  138.7436  164.0721 C.ar    1  UNL1        0.0005
     23 C         138.3149  140.1352  163.8512 C.ar    1  UNL1       -0.0015
     24 C         137.8116  140.5428  162.4982 C.ar    1  UNL1        0.0111
     25 C         137.8229  139.5588  161.3661 C.ar    1  UNL1        0.0577
     26 CL        137.3196  139.9663  160.0132 Cl      1  UNL1       -0.0822
     27 C         138.3375  138.1673  161.5870 C.ar    1  UNL1        0.0111
     28 C         138.8409  137.7597  162.9400 C.ar    1  UNL1       -0.0015
@<TRIPOS>BOND
     1     1     2    1
     2     2     3   ar
     3     3     4   ar
     4     4     5   ar
     5     5     6   ar
     6     6    12    1
     7    12    13    1
     8    13    14    1
     9    14    15    1
    10    15    16    1
    11    16    17    1
    12    17    18    1
    13    17    19    1
    14     6     7   ar
    15     7    21    1
    16    21    22    1
    17    22    23   ar
    18    23    24   ar
    19    24    25   ar
    20    25    26    1
    21    25    27   ar
    22    27    28   ar
    23     7     8   ar
    24     8     9   ar
    25     9    10   ar
    26    10    11    1
    27    10     2   ar
    28     8     4   ar
    29    19    13    1
    30    28    22   ar
    31    16    20    1
@<TRIPOS>MOLECULE
*****
 28 31 0 0 0
SMALL
GASTEIGER

@<TRIPOS>ATOM
      1 C         137.7248  138.1960  166.5786 C.3     1  UNL1        0.0307
      2 C         138.9846  138.3933  165.7886 C.ar    1  UNL1       -0.0242
      3 C         139.1812  137.6603  164.4948 C.ar    1  UNL1        0.0160
      4 C         140.4409  137.8576  163.7049 C.ar    1  UNL1        0.0980
      5 N         140.9120  137.2759  162.4049 N.ar    1  UNL1       -0.2310
      6 C         142.2664  137.8468  162.1054 C.ar    1  UNL1        0.1205
      7 N         142.6323  138.7813  163.2203 N.ar    1  UNL1       -0.3107
      8 C         141.5041  138.7880  164.2087 C.ar    1  UNL1        0.0785
      9 C         141.3076  139.5210  165.5025 C.ar    1  UNL1        0.0142
     10 C         140.0478  139.3237  166.2925 C.ar    1  UNL1       -0.0243
     11 C         139.8513  140.0568  167.5864 C.3     1  UNL1        0.0307
     12 C         143.1072  137.5375  160.9023 C.3     1  UNL1        0.0640
     13 C         143.0460  138.4267  159.6959 C.3     1  UNL1        0.0102
     14 C         142.2684  137.9980  158.4869 C.3     1  UNL1        0.0176
     15 C         142.2072  138.8872  157.2805 C.3     1  UNL1        0.0685
     16 N         142.9236  140.2051  157.2829 N.3     1  UNL1       -0.2985
     17 C         143.7012  140.6338  158.4918 C.3     1  UNL1        0.0540
     18 C         144.4176  141.9516  158.4943 C.3     1  UNL1        0.0171
     19 C         143.7624  139.7445  159.6984 C.3     1  UNL1        0.0162
     20 H         142.2191  140.9235  157.1160 H       1  UNL1        0.1232
     21 C         143.9033  139.5706  163.3277 C.3     1  UNL1        0.1339
     22 C         143.8492  141.0597  163.4999 C.ar    1  UNL1        0.0005
     23 C         143.0234  141.8933  162.5655 C.ar    1  UNL1       -0.0015
     24 C         142.9693  143.3824  162.7376 C.ar    1  UNL1        0.0111
     25 C         143.7409  144.0380  163.8442 C.ar    1  UNL1        0.0577
     26 CL        143.6869  145.5270  164.0164 Cl      1  UNL1       -0.0822
     27 C         144.5668  143.2045  164.7787 C.ar    1  UNL1        0.0111
     28 C         144.6209  141.7153  164.6066 C.ar    1  UNL1       -0.0015
@<TRIPOS>BOND
     1     1     2    1
     2     2     3   ar
     3     3     4   ar
     4     4     5   ar
     5     5     6   ar
     6     6    12    1
     7    12    13    1
     8    13    14    1
     9    14    15    1
    10    15    16    1
    11    16    17    1
    12    17    18    1
    13    17    19    1
    14     6     7   ar
    15     7    21    1
    16    21    22    1
    17    22    23   ar
    18    23    24   ar
    19    24    25   ar
    20    25    26    1
    21    25    27   ar
    22    27    28   ar
    23     7     8   ar
    24     8     9   ar
    25     9    10   ar
    26    10    11    1
    27    10     2   ar
    28     8     4   ar
    29    19    13    1
    30    28    22   ar
    31    16    20    1
@<TRIPOS>MOLECULE
*****
 28 31 0 0 0
SMALL
GASTEIGER

@<TRIPOS>ATOM
      1 C         143.3478  141.8516  169.9390 C.3     1  UNL1        0.0307
      2 C         142.3549  141.5923  168.8450 C.ar    1  UNL1       -0.0242
      3 C         141.7193  142.7420  168.1210 C.ar    1  UNL1        0.0160
      4 C         140.7264  142.4827  167.0270 C.ar    1  UNL1        0.0980
      5 N         139.9426  143.4072  166.1431 N.ar    1  UNL1       -0.2310
      6 C         139.1009  142.5695  165.2268 C.ar    1  UNL1        0.1205
      7 N         139.3645  141.1273  165.5443 N.ar    1  UNL1       -0.3107
      8 C         140.3691  141.0738  166.6569 C.ar    1  UNL1        0.0785
      9 C         141.0047  139.9240  167.3808 C.ar    1  UNL1        0.0142
     10 C         141.9976  140.1833  168.4749 C.ar    1  UNL1       -0.0243
     11 C         142.6332  139.0335  169.1988 C.3     1  UNL1        0.0307
     12 C         138.1606  143.0836  164.1772 C.3     1  UNL1        0.0640
     13 C         138.7015  143.6442  162.8954 C.3     1  UNL1        0.0102
     14 C         139.2906  145.0235  162.8696 C.3     1  UNL1        0.0176
     15 C         139.8315  145.5842  161.5878 C.3     1  UNL1        0.0685
     16 N         139.7834  144.7656  160.3317 N.3     1  UNL1       -0.2985
     17 C         139.1943  143.3863  160.3575 C.3     1  UNL1        0.0540
     18 C         139.1462  142.5677  159.1015 C.3     1  UNL1        0.0171
     19 C         138.6534  142.8256  161.6394 C.3     1  UNL1        0.0162
     20 H         140.7452  144.6689  160.0062 H       1  UNL1        0.1232
     21 C         138.7341  139.9461  164.8680 C.3     1  UNL1        0.1339
     22 C         139.0261  139.6647  163.4239 C.ar    1  UNL1        0.0005
     23 C         137.9095  139.3039  162.4895 C.ar    1  UNL1       -0.0015
     24 C         138.2014  139.0224  161.0453 C.ar    1  UNL1        0.0111
     25 C         139.6099  139.1017  160.5356 C.ar    1  UNL1        0.0577
     26 CL        139.9018  138.8203  159.0915 Cl      1  UNL1       -0.0822
     27 C         140.7265  139.4624  161.4699 C.ar    1  UNL1        0.0111
     28 C         140.4346  139.7439  162.9142 C.ar    1  UNL1       -0.0015
@<TRIPOS>BOND
     1     1     2    1
     2     2     3   ar
     3     3     4   ar
     4     4     5   ar
     5     5     6   ar
     6     6    12    1
     7    12    13    1
     8    13    14    1
     9    14    15    1
    10    15    16    1
    11    16    17    1
    12    17    18    1
    13    17    19    1
    14     6     7   ar
    15     7    21    1
    16    21    22    1
    17    22    23   ar
    18    23    24   ar
    19    24    25   ar
    20    25    26    1
    21    25    27   ar
    22    27    28   ar
    23     7     8   ar
    24     8     9   ar
    25     9    10   ar
    26    10    11    1
    27    10     2   ar
    28     8     4   ar
    29    19    13    1
    30    28    22   ar
    31    16    20    1
