@<TRIPOS>MOLECULE
*****
 37 41 0 0 0
SMALL
GASTEIGER

@<TRIPOS>ATOM
      1 C         141.9260  138.3400  159.5466 C.3     1  UNL1        0.0769
      2 N         140.3419  138.9109  163.7197 N.pl3   1  UNL1       -0.3035
      3 C         141.3854  137.8678  163.4498 C.3     1  UNL1        0.1082
      4 C         141.9134  137.6774  162.0588 C.3     1  UNL1        0.0938
      5 N         141.3979  138.5303  160.9377 N.3     1  UNL1       -0.2695
      6 C         140.3544  139.5735  161.2076 C.3     1  UNL1        0.0938
      7 C         139.8264  139.7639  162.5986 C.3     1  UNL1        0.1082
      8 C         138.7579  139.4819  167.8928 C.ar    1  UNL1        0.0700
      9 C         137.9854  138.6610  166.9032 C.ar    1  UNL1        0.0116
     10 C         138.5134  138.4707  165.5122 C.ar    1  UNL1        0.0167
     11 C         139.8139  139.1013  165.1108 C.ar    1  UNL1        0.0658
     12 C         140.5864  139.9222  166.1004 C.ar    1  UNL1        0.0952
     13 N         141.8868  140.5528  165.6990 N.ar    1  UNL1       -0.2426
     14 C         142.6593  141.3737  166.6887 C.ar    1  UNL1        0.0989
     15 C         142.1312  141.5640  168.0797 C.ar    1  UNL1        0.0207
     16 C         140.8308  140.9335  168.4811 C.ar    1  UNL1        0.0038
     17 C         140.0584  140.1126  167.4915 C.ar    1  UNL1        0.0285
     18 N         137.7018  139.8626  170.6749 N.1     1  UNL1       -0.1908
     19 C         138.2298  139.6722  169.2839 C.1     1  UNL1        0.1005
     20 C         142.9533  139.2855  158.9985 C.3     1  UNL1        0.0437
     21 C         143.3313  140.5134  159.7727 C.ar    1  UNL1       -0.0206
     22 C         142.8190  141.8569  159.3451 C.ar    1  UNL1       -0.0011
     23 C         143.1971  143.0848  160.1193 C.ar    1  UNL1        0.0366
     24 C         144.0874  142.9692  161.3210 C.ar    1  UNL1        0.1385
     25 C         144.5996  141.6258  161.7485 C.ar    1  UNL1        0.0366
     26 C         144.2215  140.3979  160.9743 C.ar    1  UNL1       -0.0011
     27 O         144.4654  144.1971  162.0952 O.3     1  UNL1       -0.4754
     28 C         143.9335  144.4023  163.4827 C.3     1  UNL1        0.2068
     29 C         142.7508  145.2970  163.7078 C.3     1  UNL1        0.0646
     30 C         141.5561  145.2022  162.8059 C.3     1  UNL1        0.0759
     31 N         140.3843  144.3528  163.2001 N.3     1  UNL1       -0.2726
     32 C         140.3574  143.9048  164.6314 C.3     1  UNL1        0.0721
     33 C         139.3339  143.0571  165.3269 C.3     1  UNL1        0.0173
     34 C         138.0845  142.4478  164.7630 C.3     1  UNL1        0.0015
     35 C         137.5501  142.5360  163.3642 C.3     1  UNL1        0.0015
     36 C         138.1331  143.2551  162.1839 C.3     1  UNL1        0.0173
     37 C         139.3944  144.0636  162.1109 C.3     1  UNL1        0.0721
@<TRIPOS>BOND
     1    18    19    3
     2    19     8    1
     3     8     9   ar
     4     9    10   ar
     5    10    11   ar
     6    11     2    1
     7     2     3    1
     8     3     4    1
     9     4     5    1
    10     5     1    1
    11     1    20    1
    12    20    21    1
    13    21    22   ar
    14    22    23   ar
    15    23    24   ar
    16    24    27    1
    17    27    28    1
    18    28    29    1
    19    29    30    1
    20    30    31    1
    21    31    32    1
    22    32    33    1
    23    33    34    1
    24    34    35    1
    25    35    36    1
    26    36    37    1
    27    24    25   ar
    28    25    26   ar
    29     5     6    1
    30     6     7    1
    31    11    12   ar
    32    12    13   ar
    33    13    14   ar
    34    14    15   ar
    35    15    16   ar
    36    16    17   ar
    37    17     8   ar
    38     7     2    1
    39    17    12   ar
    40    26    21   ar
    41    37    31    1
@<TRIPOS>MOLECULE
*****
 37 41 0 0 0
SMALL
GASTEIGER

@<TRIPOS>ATOM
      1 C         139.2563  138.1808  160.6483 C.3     1  UNL1        0.0769
      2 N         139.7817  139.5576  164.9002 N.pl3   1  UNL1       -0.3035
      3 C         139.0327  140.4131  163.9219 C.3     1  UNL1        0.1082
      4 C         138.8576  139.9542  162.5046 C.3     1  UNL1        0.0938
      5 N         139.4315  138.6397  162.0656 N.3     1  UNL1       -0.2695
      6 C         140.1805  137.7841  163.0438 C.3     1  UNL1        0.0938
      7 C         140.3556  138.2430  164.4611 C.3     1  UNL1        0.1082
      8 C         140.3071  140.9343  169.1521 C.ar    1  UNL1        0.0700
      9 C         139.1297  140.0829  168.7795 C.ar    1  UNL1        0.0116
     10 C         138.9546  139.6240  167.3622 C.ar    1  UNL1        0.0167
     11 C         139.9568  140.0165  166.3175 C.ar    1  UNL1        0.0658
     12 C         141.1343  140.8679  166.6901 C.ar    1  UNL1        0.0952
     13 N         142.1366  141.2603  165.6454 N.ar    1  UNL1       -0.2426
     14 C         143.3140  142.1117  166.0180 C.ar    1  UNL1        0.0989
     15 C         143.4891  142.5706  167.4353 C.ar    1  UNL1        0.0207
     16 C         142.4868  142.1781  168.4800 C.ar    1  UNL1        0.0038
     17 C         141.3094  141.3268  168.1074 C.ar    1  UNL1        0.0285
     18 N         140.6573  141.8521  171.9867 N.1     1  UNL1       -0.1908
     19 C         140.4822  141.3932  170.5694 C.1     1  UNL1        0.1005
     20 C         140.3440  138.4186  159.6431 C.3     1  UNL1        0.0437
     21 C         141.3433  139.5151  159.8647 C.ar    1  UNL1       -0.0206
     22 C         142.6671  139.2064  160.4991 C.ar    1  UNL1       -0.0011
     23 C         143.6664  140.3029  160.7207 C.ar    1  UNL1        0.0366
     24 C         143.3420  141.7081  160.3077 C.ar    1  UNL1        0.1385
     25 C         142.0183  142.0166  159.6733 C.ar    1  UNL1        0.0366
     26 C         141.0190  140.9202  159.4518 C.ar    1  UNL1       -0.0011
     27 O         144.3413  142.8045  160.5292 O.3     1  UNL1       -0.4754
     28 C         144.5633  143.3495  161.9091 C.3     1  UNL1        0.2068
     29 C         143.3957  143.5739  162.8236 C.3     1  UNL1        0.0646
     30 C         142.2928  144.5057  162.4170 C.3     1  UNL1        0.0759
     31 N         140.8995  144.2868  162.9275 N.3     1  UNL1       -0.2726
     32 C         140.7312  144.3696  164.4158 C.3     1  UNL1        0.0721
     33 C         139.4805  144.2000  165.2263 C.3     1  UNL1        0.0173
     34 C         138.0892  143.9057  164.7489 C.3     1  UNL1        0.0015
     35 C         137.6051  143.7084  163.3430 C.3     1  UNL1        0.0015
     36 C         138.3926  143.7565  162.0672 C.3     1  UNL1        0.0173
     37 C         139.8588  144.0139  161.8824 C.3     1  UNL1        0.0721
@<TRIPOS>BOND
     1    18    19    3
     2    19     8    1
     3     8     9   ar
     4     9    10   ar
     5    10    11   ar
     6    11     2    1
     7     2     3    1
     8     3     4    1
     9     4     5    1
    10     5     1    1
    11     1    20    1
    12    20    21    1
    13    21    22   ar
    14    22    23   ar
    15    23    24   ar
    16    24    27    1
    17    27    28    1
    18    28    29    1
    19    29    30    1
    20    30    31    1
    21    31    32    1
    22    32    33    1
    23    33    34    1
    24    34    35    1
    25    35    36    1
    26    36    37    1
    27    24    25   ar
    28    25    26   ar
    29     5     6    1
    30     6     7    1
    31    11    12   ar
    32    12    13   ar
    33    13    14   ar
    34    14    15   ar
    35    15    16   ar
    36    16    17   ar
    37    17     8   ar
    38     7     2    1
    39    17    12   ar
    40    26    21   ar
    41    37    31    1
@<TRIPOS>MOLECULE
*****
 37 41 0 0 0
SMALL
GASTEIGER

@<TRIPOS>ATOM
      1 C         145.5234  142.1130  163.8757 C.3     1  UNL1        0.0769
      2 N         142.9349  140.2044  160.7283 N.pl3   1  UNL1       -0.3035
      3 C         142.9935  139.6183  162.1078 C.3     1  UNL1        0.1082
      4 C         143.8563  140.2545  163.1570 C.3     1  UNL1        0.0938
      5 N         144.6606  141.4768  162.8266 N.3     1  UNL1       -0.2695
      6 C         144.6020  142.0629  161.4470 C.3     1  UNL1        0.0938
      7 C         143.7391  141.4267  160.3979 C.3     1  UNL1        0.1082
      8 C         140.3463  138.2957  157.5809 C.ar    1  UNL1        0.0700
      9 C         141.6498  137.6612  157.9659 C.ar    1  UNL1        0.0116
     10 C         142.5127  138.2975  159.0150 C.ar    1  UNL1        0.0167
     11 C         142.0720  139.5681  159.6792 C.ar    1  UNL1        0.0658
     12 C         140.7684  140.2027  159.2942 C.ar    1  UNL1        0.0952
     13 N         140.3278  141.4734  159.9583 N.ar    1  UNL1       -0.2426
     14 C         139.0243  142.1078  159.5733 C.ar    1  UNL1        0.0989
     15 C         138.1614  141.4716  158.5242 C.ar    1  UNL1        0.0207
     16 C         138.6021  140.2009  157.8600 C.ar    1  UNL1        0.0038
     17 C         139.9056  139.5665  158.2450 C.ar    1  UNL1        0.0285
     18 N         138.6206  137.0233  155.4826 N.1     1  UNL1       -0.1908
     19 C         139.4834  137.6595  156.5317 C.1     1  UNL1        0.1005
     20 C         144.9134  143.0313  164.8929 C.3     1  UNL1        0.0437
     21 C         143.4979  143.4991  164.7276 C.ar    1  UNL1       -0.0206
     22 C         143.2023  144.7198  163.9074 C.ar    1  UNL1       -0.0011
     23 C         141.7868  145.1877  163.7421 C.ar    1  UNL1        0.0366
     24 C         140.6667  144.4348  164.3971 C.ar    1  UNL1        0.1385
     25 C         140.9623  143.2142  165.2172 C.ar    1  UNL1        0.0366
     26 C         142.3779  142.7464  165.3825 C.ar    1  UNL1       -0.0011
     27 O         139.2512  144.9027  164.2318 O.3     1  UNL1       -0.4754
     28 C         138.4914  144.5672  162.9827 C.3     1  UNL1        0.2068
     29 C         137.7508  143.2667  162.8818 C.3     1  UNL1        0.0646
     30 C         137.6468  142.3680  164.0783 C.3     1  UNL1        0.0759
     31 N         138.0193  140.9196  163.9630 N.3     1  UNL1       -0.2726
     32 C         138.3453  140.2269  165.2530 C.3     1  UNL1        0.0721
     33 C         138.7491  138.7988  165.4715 C.3     1  UNL1        0.0173
     34 C         138.9266  137.7109  164.4542 C.3     1  UNL1        0.0015
     35 C         138.7441  137.7823  162.9670 C.3     1  UNL1        0.0015
     36 C         138.3391  138.9592  162.1299 C.3     1  UNL1        0.0173
     37 C         138.0166  140.3555  162.5732 C.3     1  UNL1        0.0721
@<TRIPOS>BOND
     1    18    19    3
     2    19     8    1
     3     8     9   ar
     4     9    10   ar
     5    10    11   ar
     6    11     2    1
     7     2     3    1
     8     3     4    1
     9     4     5    1
    10     5     1    1
    11     1    20    1
    12    20    21    1
    13    21    22   ar
    14    22    23   ar
    15    23    24   ar
    16    24    27    1
    17    27    28    1
    18    28    29    1
    19    29    30    1
    20    30    31    1
    21    31    32    1
    22    32    33    1
    23    33    34    1
    24    34    35    1
    25    35    36    1
    26    36    37    1
    27    24    25   ar
    28    25    26   ar
    29     5     6    1
    30     6     7    1
    31    11    12   ar
    32    12    13   ar
    33    13    14   ar
    34    14    15   ar
    35    15    16   ar
    36    16    17   ar
    37    17     8   ar
    38     7     2    1
    39    17    12   ar
    40    26    21   ar
    41    37    31    1
@<TRIPOS>MOLECULE
*****
 37 41 0 0 0
SMALL
GASTEIGER

@<TRIPOS>ATOM
      1 C         142.4404  138.0079  157.5048 C.3     1  UNL1        0.0769
      2 N         140.9159  138.5758  161.7005 N.pl3   1  UNL1       -0.3035
      3 C         140.0118  138.8364  160.5323 C.3     1  UNL1        0.1082
      4 C         140.5200  138.6471  159.1337 C.3     1  UNL1        0.0938
      5 N         141.9322  138.1972  158.9034 N.3     1  UNL1       -0.2695
      6 C         142.8364  137.9366  160.0716 C.3     1  UNL1        0.0938
      7 C         142.3282  138.1260  161.4701 C.3     1  UNL1        0.1082
      8 C         139.3914  139.1438  165.8961 C.ar    1  UNL1        0.0700
      9 C         139.1184  137.8623  165.1659 C.ar    1  UNL1        0.0116
     10 C         139.6265  137.6730  163.7674 C.ar    1  UNL1        0.0167
     11 C         140.4077  138.7652  163.0990 C.ar    1  UNL1        0.0658
     12 C         140.6808  140.0468  163.8291 C.ar    1  UNL1        0.0952
     13 N         141.4620  141.1390  163.1607 N.ar    1  UNL1       -0.2426
     14 C         141.7350  142.4205  163.8909 C.ar    1  UNL1        0.0989
     15 C         141.2268  142.6098  165.2894 C.ar    1  UNL1        0.0207
     16 C         140.4456  141.5176  165.9578 C.ar    1  UNL1        0.0038
     17 C         140.1726  140.2361  165.2277 C.ar    1  UNL1        0.0285
     18 N         138.3750  139.5224  168.6932 N.1     1  UNL1       -0.1908
     19 C         138.8832  139.3331  167.2946 C.1     1  UNL1        0.1005
     20 C         143.3362  139.0398  156.8862 C.3     1  UNL1        0.0437
     21 C         143.1777  140.4861  157.2509 C.ar    1  UNL1       -0.0206
     22 C         144.0307  141.0854  158.3296 C.ar    1  UNL1       -0.0011
     23 C         143.8723  142.5317  158.6943 C.ar    1  UNL1        0.0366
     24 C         142.8609  143.3788  157.9803 C.ar    1  UNL1        0.1385
     25 C         142.0081  142.7796  156.9017 C.ar    1  UNL1        0.0366
     26 C         142.1665  141.3332  156.5370 C.ar    1  UNL1       -0.0011
     27 O         142.7025  144.8252  158.3450 O.3     1  UNL1       -0.4754
     28 C         141.3328  145.4009  158.5513 C.3     1  UNL1        0.2068
     29 C         140.3314  144.6700  159.3956 C.3     1  UNL1        0.0646
     30 C         140.0592  145.1246  160.7989 C.3     1  UNL1        0.0759
     31 N         139.2542  144.2611  161.7242 N.3     1  UNL1       -0.2726
     32 C         138.9306  144.8631  163.0595 C.3     1  UNL1        0.0721
     33 C         138.1522  144.2623  164.1922 C.3     1  UNL1        0.0173
     34 C         137.5050  142.9113  164.2696 C.3     1  UNL1        0.0015
     35 C         137.4765  141.8273  163.2331 C.3     1  UNL1        0.0015
     36 C         138.0881  141.8267  161.8635 C.3     1  UNL1        0.0173
     37 C         138.8792  142.9098  161.1920 C.3     1  UNL1        0.0721
@<TRIPOS>BOND
     1    18    19    3
     2    19     8    1
     3     8     9   ar
     4     9    10   ar
     5    10    11   ar
     6    11     2    1
     7     2     3    1
     8     3     4    1
     9     4     5    1
    10     5     1    1
    11     1    20    1
    12    20    21    1
    13    21    22   ar
    14    22    23   ar
    15    23    24   ar
    16    24    27    1
    17    27    28    1
    18    28    29    1
    19    29    30    1
    20    30    31    1
    21    31    32    1
    22    32    33    1
    23    33    34    1
    24    34    35    1
    25    35    36    1
    26    36    37    1
    27    24    25   ar
    28    25    26   ar
    29     5     6    1
    30     6     7    1
    31    11    12   ar
    32    12    13   ar
    33    13    14   ar
    34    14    15   ar
    35    15    16   ar
    36    16    17   ar
    37    17     8   ar
    38     7     2    1
    39    17    12   ar
    40    26    21   ar
    41    37    31    1
@<TRIPOS>MOLECULE
*****
 37 41 0 0 0
SMALL
GASTEIGER

@<TRIPOS>ATOM
      1 C         141.2944  145.2074  159.5793 C.3     1  UNL1        0.0769
      2 N         141.0817  143.0703  163.5338 N.pl3   1  UNL1       -0.3035
      3 C         142.3197  143.8286  163.1567 C.3     1  UNL1        0.1082
      4 C         142.3906  144.5409  161.8385 C.3     1  UNL1        0.0938
      5 N         141.2235  144.4950  160.8975 N.3     1  UNL1       -0.2695
      6 C         139.9853  143.7367  161.2745 C.3     1  UNL1        0.0938
      7 C         139.9145  143.0244  162.5927 C.3     1  UNL1        0.1082
      8 C         140.8690  140.9333  167.4882 C.ar    1  UNL1        0.0700
      9 C         140.0901  142.1975  167.2761 C.ar    1  UNL1        0.0116
     10 C         140.1610  142.9098  165.9579 C.ar    1  UNL1        0.0167
     11 C         141.0108  142.3580  164.8519 C.ar    1  UNL1        0.0658
     12 C         141.7898  141.0937  165.0641 C.ar    1  UNL1        0.0952
     13 N         142.6396  140.5419  163.9581 N.ar    1  UNL1       -0.2426
     14 C         143.4185  139.2777  164.1703 C.ar    1  UNL1        0.0989
     15 C         143.3477  138.5654  165.4884 C.ar    1  UNL1        0.0207
     16 C         142.4978  139.1172  166.5944 C.ar    1  UNL1        0.0038
     17 C         141.7189  140.3814  166.3822 C.ar    1  UNL1        0.0285
     18 N         140.7272  139.5086  170.1245 N.1     1  UNL1       -0.1908
     19 C         140.7981  140.2209  168.8064 C.1     1  UNL1        0.1005
     20 C         142.0157  144.5780  158.4245 C.3     1  UNL1        0.0437
     21 C         142.3495  143.1160  158.4556 C.ar    1  UNL1       -0.0206
     22 C         143.6381  142.6537  159.0688 C.ar    1  UNL1       -0.0011
     23 C         143.9719  141.1917  159.0999 C.ar    1  UNL1        0.0366
     24 C         143.0171  140.1919  158.5178 C.ar    1  UNL1        0.1385
     25 C         141.7286  140.6541  157.9046 C.ar    1  UNL1        0.0366
     26 C         141.3948  142.1162  157.8735 C.ar    1  UNL1       -0.0011
     27 O         143.3509  138.7298  158.5489 O.3     1  UNL1       -0.4754
     28 C         142.7599  137.8479  159.6087 C.3     1  UNL1        0.2068
     29 C         142.0976  138.4579  160.8084 C.3     1  UNL1        0.0646
     30 C         140.6075  138.3818  160.9623 C.3     1  UNL1        0.0759
     31 N         139.9871  138.4977  162.3230 N.3     1  UNL1       -0.2726
     32 C         139.0671  139.6658  162.5214 C.3     1  UNL1        0.0721
     33 C         138.3015  140.0548  163.7512 C.3     1  UNL1        0.0173
     34 C         138.2668  139.3721  165.0864 C.3     1  UNL1        0.0015
     35 C         138.9892  138.1315  165.5215 C.3     1  UNL1        0.0015
     36 C         139.9246  137.2674  164.7288 C.3     1  UNL1        0.0173
     37 C         140.3687  137.4304  163.3054 C.3     1  UNL1        0.0721
@<TRIPOS>BOND
     1    18    19    3
     2    19     8    1
     3     8     9   ar
     4     9    10   ar
     5    10    11   ar
     6    11     2    1
     7     2     3    1
     8     3     4    1
     9     4     5    1
    10     5     1    1
    11     1    20    1
    12    20    21    1
    13    21    22   ar
    14    22    23   ar
    15    23    24   ar
    16    24    27    1
    17    27    28    1
    18    28    29    1
    19    29    30    1
    20    30    31    1
    21    31    32    1
    22    32    33    1
    23    33    34    1
    24    34    35    1
    25    35    36    1
    26    36    37    1
    27    24    25   ar
    28    25    26   ar
    29     5     6    1
    30     6     7    1
    31    11    12   ar
    32    12    13   ar
    33    13    14   ar
    34    14    15   ar
    35    15    16   ar
    36    16    17   ar
    37    17     8   ar
    38     7     2    1
    39    17    12   ar
    40    26    21   ar
    41    37    31    1
@<TRIPOS>MOLECULE
*****
 37 41 0 0 0
SMALL
GASTEIGER

@<TRIPOS>ATOM
      1 C         144.1012  138.0035  161.2632 C.3     1  UNL1        0.0769
      2 N         142.8170  139.4980  165.3088 N.pl3   1  UNL1       -0.3035
      3 C         141.9619  138.5142  164.5666 C.3     1  UNL1        0.1082
      4 C         142.3900  138.0160  163.2180 C.3     1  UNL1        0.0938
      5 N         143.6731  138.5017  162.6117 N.3     1  UNL1       -0.2695
      6 C         144.5282  139.4856  163.3539 C.3     1  UNL1        0.0938
      7 C         144.1002  139.9837  164.7025 C.3     1  UNL1        0.1082
      8 C         141.5328  140.9925  169.3545 C.ar    1  UNL1        0.0700
      9 C         142.3814  139.7606  169.2447 C.ar    1  UNL1        0.0116
     10 C         142.8095  139.2624  167.8962 C.ar    1  UNL1        0.0167
     11 C         142.3889  139.9962  166.6574 C.ar    1  UNL1        0.0658
     12 C         141.5402  141.2282  166.7671 C.ar    1  UNL1        0.0952
     13 N         141.1196  141.9619  165.5283 N.ar    1  UNL1       -0.2426
     14 C         140.2710  143.1939  165.6381 C.ar    1  UNL1        0.0989
     15 C         139.8429  143.6920  166.9866 C.ar    1  UNL1        0.0207
     16 C         140.2635  142.9583  168.2254 C.ar    1  UNL1        0.0038
     17 C         141.1122  141.7263  168.1157 C.ar    1  UNL1        0.0285
     18 N         140.6767  141.9888  172.0516 N.1     1  UNL1       -0.1908
     19 C         141.1047  141.4906  170.7030 C.1     1  UNL1        0.1005
     20 C         143.8101  138.8161  160.0364 C.3     1  UNL1        0.0437
     21 C         142.6631  139.7828  160.0317 C.ar    1  UNL1       -0.0206
     22 C         142.8787  141.2043  160.4593 C.ar    1  UNL1       -0.0011
     23 C         141.7317  142.1710  160.4546 C.ar    1  UNL1        0.0366
     24 C         140.3692  141.7161  160.0224 C.ar    1  UNL1        0.1385
     25 C         140.1537  140.2946  159.5949 C.ar    1  UNL1        0.0366
     26 C         141.3007  139.3279  159.5996 C.ar    1  UNL1       -0.0011
     27 O         139.2223  142.6828  160.0178 O.3     1  UNL1       -0.4754
     28 C         138.8251  143.3814  161.2844 C.3     1  UNL1        0.2068
     29 C         138.0551  142.6426  162.3386 C.3     1  UNL1        0.0646
     30 C         137.6445  141.2185  162.1079 C.3     1  UNL1        0.0759
     31 N         137.9697  140.1693  163.1293 N.3     1  UNL1       -0.2726
     32 C         138.2853  138.8074  162.5856 C.3     1  UNL1        0.0721
     33 C         138.6455  137.5606  163.3377 C.3     1  UNL1        0.0173
     34 C         138.7789  137.3676  164.8193 C.3     1  UNL1        0.0015
     35 C         138.5852  138.3739  165.9146 C.3     1  UNL1        0.0015
     36 C         138.2102  139.8217  165.7989 C.3     1  UNL1        0.0173
     37 C         137.9362  140.6207  164.5593 C.3     1  UNL1        0.0721
@<TRIPOS>BOND
     1    18    19    3
     2    19     8    1
     3     8     9   ar
     4     9    10   ar
     5    10    11   ar
     6    11     2    1
     7     2     3    1
     8     3     4    1
     9     4     5    1
    10     5     1    1
    11     1    20    1
    12    20    21    1
    13    21    22   ar
    14    22    23   ar
    15    23    24   ar
    16    24    27    1
    17    27    28    1
    18    28    29    1
    19    29    30    1
    20    30    31    1
    21    31    32    1
    22    32    33    1
    23    33    34    1
    24    34    35    1
    25    35    36    1
    26    36    37    1
    27    24    25   ar
    28    25    26   ar
    29     5     6    1
    30     6     7    1
    31    11    12   ar
    32    12    13   ar
    33    13    14   ar
    34    14    15   ar
    35    15    16   ar
    36    16    17   ar
    37    17     8   ar
    38     7     2    1
    39    17    12   ar
    40    26    21   ar
    41    37    31    1
@<TRIPOS>MOLECULE
*****
 37 41 0 0 0
SMALL
GASTEIGER

@<TRIPOS>ATOM
      1 C         139.8357  146.2141  161.9297 C.3     1  UNL1        0.0769
      2 N         140.9735  143.2224  165.0927 N.pl3   1  UNL1       -0.3035
      3 C         139.5273  143.4771  164.7869 C.3     1  UNL1        0.1082
      4 C         139.1480  144.4743  163.7325 C.3     1  UNL1        0.0938
      5 N         140.2149  145.2169  162.9840 N.3     1  UNL1       -0.2695
      6 C         141.6612  144.9621  163.2898 C.3     1  UNL1        0.0938
      7 C         142.0405  143.9649  164.3442 C.3     1  UNL1        0.1082
      8 C         142.1113  140.2306  168.2557 C.ar    1  UNL1        0.0700
      9 C         141.3690  141.4775  168.6352 C.ar    1  UNL1        0.0116
     10 C         140.9897  142.4748  167.5808 C.ar    1  UNL1        0.0167
     11 C         141.3528  142.2251  166.1471 C.ar    1  UNL1        0.0658
     12 C         142.0952  140.9781  165.7675 C.ar    1  UNL1        0.0952
     13 N         142.4583  140.7284  164.3338 N.ar    1  UNL1       -0.2426
     14 C         143.2006  139.4815  163.9543 C.ar    1  UNL1        0.0989
     15 C         143.5799  138.4843  165.0087 C.ar    1  UNL1        0.0207
     16 C         143.2168  138.7339  166.4424 C.ar    1  UNL1        0.0038
     17 C         142.4745  139.9809  166.8219 C.ar    1  UNL1        0.0285
     18 N         142.8699  138.2361  170.3644 N.1     1  UNL1       -0.1908
     19 C         142.4906  139.2333  169.3101 C.1     1  UNL1        0.1005
     20 C         140.0845  145.9071  160.4827 C.3     1  UNL1        0.0437
     21 C         140.3104  144.4903  160.0447 C.ar    1  UNL1       -0.0206
     22 C         139.2281  143.4676  160.2262 C.ar    1  UNL1       -0.0011
     23 C         139.4539  142.0509  159.7882 C.ar    1  UNL1        0.0366
     24 C         140.7620  141.6569  159.1686 C.ar    1  UNL1        0.1385
     25 C         141.8441  142.6795  158.9871 C.ar    1  UNL1        0.0366
     26 C         141.6183  144.0963  159.4252 C.ar    1  UNL1       -0.0011
     27 O         140.9878  140.2401  158.7306 O.3     1  UNL1       -0.4754
     28 C         142.0109  139.3934  159.4282 C.3     1  UNL1        0.2068
     29 C         141.6285  138.6067  160.6467 C.3     1  UNL1        0.0646
     30 C         140.1818  138.4253  160.9989 C.3     1  UNL1        0.0759
     31 N         139.7168  138.6625  162.4051 N.3     1  UNL1       -0.2726
     32 C         140.1714  137.6554  163.4196 C.3     1  UNL1        0.0721
     33 C         139.8801  137.6127  164.8904 C.3     1  UNL1        0.0173
     34 C         139.0623  138.5663  165.7101 C.3     1  UNL1        0.0015
     35 C         138.3338  139.7983  165.2612 C.3     1  UNL1        0.0015
     36 C         138.2432  140.3809  163.8820 C.3     1  UNL1        0.0173
     37 C         138.8587  139.8754  162.6109 C.3     1  UNL1        0.0721
@<TRIPOS>BOND
     1    18    19    3
     2    19     8    1
     3     8     9   ar
     4     9    10   ar
     5    10    11   ar
     6    11     2    1
     7     2     3    1
     8     3     4    1
     9     4     5    1
    10     5     1    1
    11     1    20    1
    12    20    21    1
    13    21    22   ar
    14    22    23   ar
    15    23    24   ar
    16    24    27    1
    17    27    28    1
    18    28    29    1
    19    29    30    1
    20    30    31    1
    21    31    32    1
    22    32    33    1
    23    33    34    1
    24    34    35    1
    25    35    36    1
    26    36    37    1
    27    24    25   ar
    28    25    26   ar
    29     5     6    1
    30     6     7    1
    31    11    12   ar
    32    12    13   ar
    33    13    14   ar
    34    14    15   ar
    35    15    16   ar
    36    16    17   ar
    37    17     8   ar
    38     7     2    1
    39    17    12   ar
    40    26    21   ar
    41    37    31    1
@<TRIPOS>MOLECULE
*****
 37 41 0 0 0
SMALL
GASTEIGER

@<TRIPOS>ATOM
      1 C         140.2280  145.7757  160.8234 C.3     1  UNL1        0.0769
      2 N         140.0494  143.4175  164.6519 N.pl3   1  UNL1       -0.3035
      3 C         138.7874  143.7297  163.9038 C.3     1  UNL1        0.1082
      4 C         138.8469  144.5158  162.6276 C.3     1  UNL1        0.0938
      5 N         140.1684  144.9896  162.0996 N.3     1  UNL1       -0.2695
      6 C         141.4306  144.6774  162.8477 C.3     1  UNL1        0.0938
      7 C         141.3711  143.8913  164.1238 C.3     1  UNL1        0.1082
      8 C         139.8708  141.0593  168.4803 C.ar    1  UNL1        0.0700
      9 C         140.4043  142.4611  168.4872 C.ar    1  UNL1        0.0116
     10 C         140.4638  143.2472  167.2110 C.ar    1  UNL1        0.0167
     11 C         139.9899  142.6314  165.9280 C.ar    1  UNL1        0.0658
     12 C         139.4564  141.2294  165.9211 C.ar    1  UNL1        0.0952
     13 N         138.9825  140.6136  164.6381 N.ar    1  UNL1       -0.2426
     14 C         138.4490  139.2117  164.6313 C.ar    1  UNL1        0.0989
     15 C         138.3895  138.4256  165.9074 C.ar    1  UNL1        0.0207
     16 C         138.8634  139.0415  167.1904 C.ar    1  UNL1        0.0038
     17 C         139.3969  140.4434  167.1973 C.ar    1  UNL1        0.0285
     18 N         139.7518  139.4871  171.0326 N.1     1  UNL1       -0.1908
     19 C         139.8113  140.2732  169.7565 C.1     1  UNL1        0.1005
     20 C         140.6970  145.1188  159.5592 C.3     1  UNL1        0.0437
     21 C         140.5829  143.6317  159.3996 C.ar    1  UNL1       -0.0206
     22 C         141.7962  142.7647  159.5621 C.ar    1  UNL1       -0.0011
     23 C         141.6821  141.2776  159.4025 C.ar    1  UNL1        0.0366
     24 C         140.3548  140.6575  159.0806 C.ar    1  UNL1        0.1385
     25 C         139.1416  141.5244  158.9182 C.ar    1  UNL1        0.0366
     26 C         139.2556  143.0116  159.0777 C.ar    1  UNL1       -0.0011
     27 O         140.2407  139.1703  158.9211 O.3     1  UNL1       -0.4754
     28 C         139.4941  138.3618  159.9404 C.3     1  UNL1        0.2068
     29 C         139.9167  138.3940  161.3792 C.3     1  UNL1        0.0646
     30 C         141.3619  138.2187  161.7405 C.3     1  UNL1        0.0759
     31 N         141.8979  138.8238  163.0041 N.3     1  UNL1       -0.2726
     32 C         142.4807  140.1995  162.8706 C.3     1  UNL1        0.0721
     33 C         143.0897  141.0643  163.9342 C.3     1  UNL1        0.0173
     34 C         143.2664  140.7671  165.3938 C.3     1  UNL1        0.0015
     35 C         142.8777  139.5316  166.1504 C.3     1  UNL1        0.0015
     36 C         142.2162  138.2882  165.6342 C.3     1  UNL1        0.0173
     37 C         141.7802  137.9732  164.2339 C.3     1  UNL1        0.0721
@<TRIPOS>BOND
     1    18    19    3
     2    19     8    1
     3     8     9   ar
     4     9    10   ar
     5    10    11   ar
     6    11     2    1
     7     2     3    1
     8     3     4    1
     9     4     5    1
    10     5     1    1
    11     1    20    1
    12    20    21    1
    13    21    22   ar
    14    22    23   ar
    15    23    24   ar
    16    24    27    1
    17    27    28    1
    18    28    29    1
    19    29    30    1
    20    30    31    1
    21    31    32    1
    22    32    33    1
    23    33    34    1
    24    34    35    1
    25    35    36    1
    26    36    37    1
    27    24    25   ar
    28    25    26   ar
    29     5     6    1
    30     6     7    1
    31    11    12   ar
    32    12    13   ar
    33    13    14   ar
    34    14    15   ar
    35    15    16   ar
    36    16    17   ar
    37    17     8   ar
    38     7     2    1
    39    17    12   ar
    40    26    21   ar
    41    37    31    1
@<TRIPOS>MOLECULE
*****
 37 41 0 0 0
SMALL
GASTEIGER

@<TRIPOS>ATOM
      1 C         145.0552  142.7909  161.2805 C.3     1  UNL1        0.0769
      2 N         142.4490  141.7196  164.7891 N.pl3   1  UNL1       -0.3035
      3 C         142.0553  142.8444  163.8782 C.3     1  UNL1        0.1082
      4 C         142.9240  143.2015  162.7087 C.3     1  UNL1        0.0938
      5 N         144.1864  142.4338  162.4501 N.3     1  UNL1       -0.2695
      6 C         144.5802  141.3090  163.3610 C.3     1  UNL1        0.0938
      7 C         143.7115  140.9519  164.5306 C.3     1  UNL1        0.1082
      8 C         139.8429  140.6483  168.2978 C.ar    1  UNL1        0.0700
      9 C         140.8671  141.7364  168.4288 C.ar    1  UNL1        0.0116
     10 C         141.7358  142.0935  167.2593 C.ar    1  UNL1        0.0167
     11 C         141.5803  141.3625  165.9587 C.ar    1  UNL1        0.0658
     12 C         140.5561  140.2745  165.8276 C.ar    1  UNL1        0.0952
     13 N         140.4006  139.5435  164.5270 N.ar    1  UNL1       -0.2426
     14 C         139.3764  138.4555  164.3960 C.ar    1  UNL1        0.0989
     15 C         138.5077  138.0984  165.5655 C.ar    1  UNL1        0.0207
     16 C         138.6632  138.8293  166.8661 C.ar    1  UNL1        0.0038
     17 C         139.6874  139.9174  166.9971 C.ar    1  UNL1        0.0285
     18 N         138.1055  139.9342  170.6368 N.1     1  UNL1       -0.1908
     19 C         138.9742  140.2913  169.4673 C.1     1  UNL1        0.1005
     20 C         144.7270  142.2655  159.9145 C.3     1  UNL1        0.0437
     21 C         143.4800  141.4598  159.7003 C.ar    1  UNL1       -0.0206
     22 C         143.4793  139.9878  159.9889 C.ar    1  UNL1       -0.0011
     23 C         142.2323  139.1822  159.7748 C.ar    1  UNL1        0.0366
     24 C         140.9859  139.8485  159.2721 C.ar    1  UNL1        0.1385
     25 C         140.9867  141.3205  158.9835 C.ar    1  UNL1        0.0366
     26 C         142.2337  142.1261  159.1976 C.ar    1  UNL1       -0.0011
     27 O         139.7389  139.0429  159.0580 O.3     1  UNL1       -0.4754
     28 C         139.0759  138.3640  160.2197 C.3     1  UNL1        0.2068
     29 C         138.0696  139.1066  161.0478 C.3     1  UNL1        0.0646
     30 C         137.7576  140.5412  160.7406 C.3     1  UNL1        0.0759
     31 N         137.9821  141.5973  161.7819 N.3     1  UNL1       -0.2726
     32 C         138.6326  142.8596  161.2989 C.3     1  UNL1        0.0721
     33 C         138.9881  144.0878  162.0833 C.3     1  UNL1        0.0173
     34 C         138.7808  144.3570  163.5443 C.3     1  UNL1        0.0015
     35 C         138.1669  143.4645  164.5818 C.3     1  UNL1        0.0015
     36 C         137.6086  142.0823  164.4145 C.3     1  UNL1        0.0173
     37 C         137.5264  141.2513  163.1684 C.3     1  UNL1        0.0721
@<TRIPOS>BOND
     1    18    19    3
     2    19     8    1
     3     8     9   ar
     4     9    10   ar
     5    10    11   ar
     6    11     2    1
     7     2     3    1
     8     3     4    1
     9     4     5    1
    10     5     1    1
    11     1    20    1
    12    20    21    1
    13    21    22   ar
    14    22    23   ar
    15    23    24   ar
    16    24    27    1
    17    27    28    1
    18    28    29    1
    19    29    30    1
    20    30    31    1
    21    31    32    1
    22    32    33    1
    23    33    34    1
    24    34    35    1
    25    35    36    1
    26    36    37    1
    27    24    25   ar
    28    25    26   ar
    29     5     6    1
    30     6     7    1
    31    11    12   ar
    32    12    13   ar
    33    13    14   ar
    34    14    15   ar
    35    15    16   ar
    36    16    17   ar
    37    17     8   ar
    38     7     2    1
    39    17    12   ar
    40    26    21   ar
    41    37    31    1
