@<TRIPOS>MOLECULE
*****
 32 35 0 0 0
SMALL
GASTEIGER

@<TRIPOS>ATOM
      1 N         139.2224  144.5456  162.9794 N.ar    1  UNL1       -0.2483
      2 N         137.7951  144.1008  163.1014 N.ar    1  UNL1       -0.1676
      3 C         137.7152  143.1001  164.2160 C.ar    1  UNL1        0.1216
      4 C         139.0931  142.9264  164.7827 C.ar    1  UNL1        0.0396
      5 C         139.6199  142.0702  165.8960 C.ar    1  UNL1        0.0207
      6 C         141.0782  142.1074  166.2450 C.ar    1  UNL1        0.0670
      7 C         142.0098  143.0007  165.4807 C.ar    1  UNL1        0.0191
      8 C         141.4830  143.8569  164.3674 C.ar    1  UNL1        0.0203
      9 C         140.0247  143.8198  164.0185 C.ar    1  UNL1        0.0796
     10 N         141.6051  141.2512  167.3583 N.ar    1  UNL1       -0.2729
     11 C         141.4265  141.6814  168.7841 C.ar    1  UNL1        0.0860
     12 C         141.9534  140.8252  169.8974 C.ar    1  UNL1        0.0561
     13 C         142.6587  139.5388  169.5849 C.ar    1  UNL1        0.1453
     14 C         142.8372  139.1086  168.1590 C.ar    1  UNL1        0.0980
     15 C         142.3104  139.9648  167.0457 C.ar    1  UNL1        0.2679
     16 O         142.4889  139.5346  165.6199 O.2     1  UNL1       -0.2665
     17 O         143.1855  138.6826  170.6982 O.3     1  UNL1       -0.4704
     18 C         143.6496  137.2848  170.4141 C.3     1  UNL1        0.2320
     19 C         144.5565  136.5844  171.3820 C.ar    1  UNL1        0.0212
     20 C         145.5359  137.3745  172.1984 C.ar    1  UNL1       -0.0007
     21 C         146.4429  136.6740  173.1663 C.ar    1  UNL1       -0.0002
     22 C         146.3704  135.1835  173.3178 C.ar    1  UNL1       -0.0000
     23 C         145.3910  134.3934  172.5014 C.ar    1  UNL1       -0.0002
     24 C         144.4841  135.0938  171.5336 C.ar    1  UNL1       -0.0007
     25 C         139.7543  145.5413  161.9916 C.3     1  UNL1        0.1579
     26 C         140.6716  145.0916  160.8931 C.3     1  UNL1        0.1507
     27 O         142.1580  145.1693  161.0784 O.3     1  UNL1       -0.3810
     28 H         142.3559  145.5300  161.9569 H       1  UNL1        0.2105
     29 C         140.1023  144.5643  159.6095 C.3     1  UNL1        0.1038
     30 C         140.1577  142.1226  160.4953 C.3     1  UNL1        0.0897
     31 N         139.6378  143.1406  159.5240 N.3     1  UNL1       -0.2682
     32 C         138.6536  142.7349  158.4673 C.3     1  UNL1        0.0897
@<TRIPOS>BOND
     1    30    31    1
     2    31    32    1
     3    31    29    1
     4    29    26    1
     5    26    27    1
     6    26    25    1
     7    25     1    1
     8     1     2   ar
     9     2     3   ar
    10     3     4   ar
    11     4     5   ar
    12     5     6   ar
    13     6    10    1
    14    10    11   ar
    15    11    12   ar
    16    12    13   ar
    17    13    17    1
    18    17    18    1
    19    18    19    1
    20    19    20   ar
    21    20    21   ar
    22    21    22   ar
    23    22    23   ar
    24    23    24   ar
    25    13    14   ar
    26    14    15   ar
    27    15    16    2
    28     6     7   ar
    29     7     8   ar
    30     8     9   ar
    31     9     1   ar
    32     9     4   ar
    33    15    10   ar
    34    24    19   ar
    35    27    28    1
@<TRIPOS>MOLECULE
*****
 32 35 0 0 0
SMALL
GASTEIGER

@<TRIPOS>ATOM
      1 N         140.1478  140.0511  168.1517 N.ar    1  UNL1       -0.2483
      2 N         138.9216  139.2319  167.8770 N.ar    1  UNL1       -0.1676
      3 C         138.3560  139.6717  166.5592 C.ar    1  UNL1        0.1216
      4 C         139.2327  140.7627  166.0194 C.ar    1  UNL1        0.0396
      5 C         139.1656  141.5729  164.7588 C.ar    1  UNL1        0.0207
      6 C         140.2060  142.6175  164.4825 C.ar    1  UNL1        0.0670
      7 C         141.3134  142.8519  165.4667 C.ar    1  UNL1        0.0191
      8 C         141.3804  142.0417  166.7273 C.ar    1  UNL1        0.0203
      9 C         140.3401  140.9971  167.0036 C.ar    1  UNL1        0.0796
     10 N         140.1389  143.4277  163.2219 N.ar    1  UNL1       -0.2729
     11 C         139.7631  144.8787  163.2820 C.ar    1  UNL1        0.0860
     12 C         139.6961  145.6889  162.0215 C.ar    1  UNL1        0.0561
     13 C         140.0049  145.0483  160.7007 C.ar    1  UNL1        0.1453
     14 C         140.3807  143.5973  160.6406 C.ar    1  UNL1        0.0980
     15 C         140.4477  142.7871  161.9012 C.ar    1  UNL1        0.2679
     16 O         140.8235  141.3362  161.8411 O.2     1  UNL1       -0.2665
     17 O         139.9378  145.8585  159.4402 O.3     1  UNL1       -0.4704
     18 C         140.8940  145.5807  158.3183 C.3     1  UNL1        0.2320
     19 C         140.5933  146.0790  156.9359 C.ar    1  UNL1        0.0212
     20 C         139.4611  147.0377  156.7139 C.ar    1  UNL1       -0.0007
     21 C         139.1604  147.5359  155.3314 C.ar    1  UNL1       -0.0002
     22 C         139.9918  147.0756  154.1709 C.ar    1  UNL1       -0.0000
     23 C         141.1240  146.1169  154.3928 C.ar    1  UNL1       -0.0002
     24 C         141.4247  145.6187  155.7753 C.ar    1  UNL1       -0.0007
     25 C         141.0274  139.9431  169.3619 C.3     1  UNL1        0.1579
     26 C         140.4907  140.3088  170.7141 C.3     1  UNL1        0.1507
     27 O         139.6151  139.3454  171.4592 O.3     1  UNL1       -0.3810
     28 H         139.4960  138.5411  170.9301 H       1  UNL1        0.2105
     29 C         140.8297  141.6379  171.3213 C.3     1  UNL1        0.1038
     30 C         140.4836  143.7018  169.7817 C.3     1  UNL1        0.0897
     31 N         141.3993  142.7300  170.4652 N.3     1  UNL1       -0.2682
     32 C         142.8845  142.8503  170.2926 C.3     1  UNL1        0.0897
@<TRIPOS>BOND
     1    30    31    1
     2    31    32    1
     3    31    29    1
     4    29    26    1
     5    26    27    1
     6    26    25    1
     7    25     1    1
     8     1     2   ar
     9     2     3   ar
    10     3     4   ar
    11     4     5   ar
    12     5     6   ar
    13     6    10    1
    14    10    11   ar
    15    11    12   ar
    16    12    13   ar
    17    13    17    1
    18    17    18    1
    19    18    19    1
    20    19    20   ar
    21    20    21   ar
    22    21    22   ar
    23    22    23   ar
    24    23    24   ar
    25    13    14   ar
    26    14    15   ar
    27    15    16    2
    28     6     7   ar
    29     7     8   ar
    30     8     9   ar
    31     9     1   ar
    32     9     4   ar
    33    15    10   ar
    34    24    19   ar
    35    27    28    1
@<TRIPOS>MOLECULE
*****
 32 35 0 0 0
SMALL
GASTEIGER

@<TRIPOS>ATOM
      1 N         139.7165  139.9084  168.0231 N.ar    1  UNL1       -0.2483
      2 N         138.4327  139.2055  168.3510 N.ar    1  UNL1       -0.1676
      3 C         137.6736  139.0065  167.0727 C.ar    1  UNL1        0.1216
      4 C         138.4884  139.5865  165.9547 C.ar    1  UNL1        0.0396
      5 C         138.2436  139.6790  164.4777 C.ar    1  UNL1        0.0207
      6 C         139.2616  140.3289  163.5881 C.ar    1  UNL1        0.0670
      7 C         140.5242  140.8863  164.1755 C.ar    1  UNL1        0.0191
      8 C         140.7689  140.7938  165.6525 C.ar    1  UNL1        0.0203
      9 C         139.7510  140.1439  166.5421 C.ar    1  UNL1        0.0796
     10 N         139.0169  140.4215  162.1111 N.ar    1  UNL1       -0.2729
     11 C         138.5503  141.7131  161.5076 C.ar    1  UNL1        0.0860
     12 C         138.3056  141.8057  160.0307 C.ar    1  UNL1        0.0561
     13 C         138.5275  140.6066  159.1570 C.ar    1  UNL1        0.1453
     14 C         138.9941  139.3150  159.7605 C.ar    1  UNL1        0.0980
     15 C         139.2388  139.2225  161.2375 C.ar    1  UNL1        0.2679
     16 O         139.7053  137.9309  161.8409 O.2     1  UNL1       -0.2665
     17 O         138.2828  140.6992  157.6800 O.3     1  UNL1       -0.4704
     18 C         137.5074  141.8543  157.1192 C.3     1  UNL1        0.2320
     19 C         136.4827  141.6208  156.0491 C.ar    1  UNL1        0.0212
     20 C         136.6061  142.3190  154.7272 C.ar    1  UNL1       -0.0007
     21 C         135.5813  142.0854  153.6570 C.ar    1  UNL1       -0.0002
     22 C         134.4331  141.1536  153.9087 C.ar    1  UNL1       -0.0000
     23 C         134.3097  140.4554  155.2305 C.ar    1  UNL1       -0.0002
     24 C         135.3344  140.6889  156.3007 C.ar    1  UNL1       -0.0007
     25 C         140.7794  140.3061  169.0040 C.3     1  UNL1        0.1579
     26 C         140.4419  140.4495  170.4585 C.3     1  UNL1        0.1507
     27 O         139.5724  139.4289  171.1309 O.3     1  UNL1       -0.3810
     28 H         139.3165  138.7486  170.4885 H       1  UNL1        0.2105
     29 C         140.9740  141.6137  171.2407 C.3     1  UNL1        0.1038
     30 C         142.9160  143.1622  170.4788 C.3     1  UNL1        0.0897
     31 N         141.4512  142.8426  170.5251 N.3     1  UNL1       -0.2682
     32 C         140.4636  143.7519  169.8559 C.3     1  UNL1        0.0897
@<TRIPOS>BOND
     1    30    31    1
     2    31    32    1
     3    31    29    1
     4    29    26    1
     5    26    27    1
     6    26    25    1
     7    25     1    1
     8     1     2   ar
     9     2     3   ar
    10     3     4   ar
    11     4     5   ar
    12     5     6   ar
    13     6    10    1
    14    10    11   ar
    15    11    12   ar
    16    12    13   ar
    17    13    17    1
    18    17    18    1
    19    18    19    1
    20    19    20   ar
    21    20    21   ar
    22    21    22   ar
    23    22    23   ar
    24    23    24   ar
    25    13    14   ar
    26    14    15   ar
    27    15    16    2
    28     6     7   ar
    29     7     8   ar
    30     8     9   ar
    31     9     1   ar
    32     9     4   ar
    33    15    10   ar
    34    24    19   ar
    35    27    28    1
@<TRIPOS>MOLECULE
*****
 32 35 0 0 0
SMALL
GASTEIGER

@<TRIPOS>ATOM
      1 N         139.6202  139.8161  167.7955 N.ar    1  UNL1       -0.2483
      2 N         138.3531  139.0793  168.1140 N.ar    1  UNL1       -0.1676
      3 C         137.7178  138.6684  166.8188 C.ar    1  UNL1        0.1216
      4 C         138.5923  139.1512  165.6998 C.ar    1  UNL1        0.0396
      5 C         138.4699  139.0367  164.2092 C.ar    1  UNL1        0.0207
      6 C         139.5233  139.6314  163.3223 C.ar    1  UNL1        0.0670
      7 C         140.6991  140.3407  163.9260 C.ar    1  UNL1        0.0191
      8 C         140.8215  140.4553  165.4165 C.ar    1  UNL1        0.0203
      9 C         139.7681  139.8605  166.3035 C.ar    1  UNL1        0.0796
     10 N         139.4009  139.5168  161.8317 N.ar    1  UNL1       -0.2729
     11 C         138.5366  140.4806  161.0739 C.ar    1  UNL1        0.0860
     12 C         138.4142  140.3660  159.5833 C.ar    1  UNL1        0.0561
     13 C         139.1561  139.2878  158.8504 C.ar    1  UNL1        0.1453
     14 C         140.0204  138.3241  159.6082 C.ar    1  UNL1        0.0980
     15 C         140.1428  138.4386  161.0989 C.ar    1  UNL1        0.2679
     16 O         141.0071  137.4749  161.8567 O.2     1  UNL1       -0.2665
     17 O         139.0337  139.1733  157.3599 O.3     1  UNL1       -0.4704
     18 C         140.2273  139.4272  156.4876 C.3     1  UNL1        0.2320
     19 C         141.0827  138.2813  156.0348 C.ar    1  UNL1        0.0212
     20 C         140.5491  136.8804  156.0875 C.ar    1  UNL1       -0.0007
     21 C         141.4046  135.7345  155.6346 C.ar    1  UNL1       -0.0002
     22 C         142.7936  135.9894  155.1291 C.ar    1  UNL1       -0.0000
     23 C         143.3272  137.3903  155.0763 C.ar    1  UNL1       -0.0002
     24 C         142.4718  138.5363  155.5292 C.ar    1  UNL1       -0.0007
     25 C         140.5724  140.4050  168.7938 C.3     1  UNL1        0.1579
     26 C         140.1402  140.6023  170.2166 C.3     1  UNL1        0.1507
     27 O         138.9735  139.8318  170.7598 O.3     1  UNL1       -0.3810
     28 H         138.6156  139.2555  170.0664 H       1  UNL1        0.2105
     29 C         140.8747  141.5702  171.0962 C.3     1  UNL1        0.1038
     30 C         140.4753  143.8591  169.9339 C.3     1  UNL1        0.0897
     31 N         141.4134  142.8464  170.5209 N.3     1  UNL1       -0.2682
     32 C         142.8900  143.1100  170.5326 C.3     1  UNL1        0.0897
@<TRIPOS>BOND
     1    30    31    1
     2    31    32    1
     3    31    29    1
     4    29    26    1
     5    26    27    1
     6    26    25    1
     7    25     1    1
     8     1     2   ar
     9     2     3   ar
    10     3     4   ar
    11     4     5   ar
    12     5     6   ar
    13     6    10    1
    14    10    11   ar
    15    11    12   ar
    16    12    13   ar
    17    13    17    1
    18    17    18    1
    19    18    19    1
    20    19    20   ar
    21    20    21   ar
    22    21    22   ar
    23    22    23   ar
    24    23    24   ar
    25    13    14   ar
    26    14    15   ar
    27    15    16    2
    28     6     7   ar
    29     7     8   ar
    30     8     9   ar
    31     9     1   ar
    32     9     4   ar
    33    15    10   ar
    34    24    19   ar
    35    27    28    1
@<TRIPOS>MOLECULE
*****
 32 35 0 0 0
SMALL
GASTEIGER

@<TRIPOS>ATOM
      1 N         139.7025  144.9323  156.8721 N.ar    1  UNL1       -0.2483
      2 N         138.9871  143.6949  156.4170 N.ar    1  UNL1       -0.1676
      3 C         138.8039  142.8011  157.6076 C.ar    1  UNL1        0.1216
      4 C         139.4062  143.4860  158.7985 C.ar    1  UNL1        0.0396
      5 C         139.5206  143.0805  160.2380 C.ar    1  UNL1        0.0207
      6 C         140.1905  143.9921  161.2230 C.ar    1  UNL1        0.0670
      7 C         140.7458  145.3092  160.7684 C.ar    1  UNL1        0.0191
      8 C         140.6314  145.7148  159.3289 C.ar    1  UNL1        0.0203
      9 C         139.9616  144.8032  158.3439 C.ar    1  UNL1        0.0796
     10 N         140.3049  143.5866  162.6627 N.ar    1  UNL1       -0.2729
     11 C         139.1208  143.7149  163.5744 C.ar    1  UNL1        0.0860
     12 C         139.2352  143.3094  165.0140 C.ar    1  UNL1        0.0561
     13 C         140.5338  142.7756  165.5419 C.ar    1  UNL1        0.1453
     14 C         141.7180  142.6472  164.6301 C.ar    1  UNL1        0.0980
     15 C         141.6035  143.0527  163.1905 C.ar    1  UNL1        0.2679
     16 O         142.7877  142.9244  162.2787 O.2     1  UNL1       -0.2665
     17 O         140.6483  142.3701  166.9815 O.3     1  UNL1       -0.4704
     18 C         140.9453  140.9435  167.3375 C.3     1  UNL1        0.2320
     19 C         140.2073  139.8307  166.6542 C.ar    1  UNL1        0.0212
     20 C         140.8726  139.0512  165.5589 C.ar    1  UNL1       -0.0007
     21 C         140.1346  137.9383  164.8755 C.ar    1  UNL1       -0.0002
     22 C         138.7314  137.6050  165.2875 C.ar    1  UNL1       -0.0000
     23 C         138.0661  138.3845  166.3828 C.ar    1  UNL1       -0.0002
     24 C         138.8040  139.4974  167.0661 C.ar    1  UNL1       -0.0007
     25 C         140.0908  146.0947  156.0072 C.3     1  UNL1        0.1579
     26 C         139.0350  146.8765  155.2831 C.3     1  UNL1        0.1507
     27 O         137.7429  146.2170  154.9013 O.3     1  UNL1       -0.3810
     28 H         137.7529  145.2924  155.1944 H       1  UNL1        0.2105
     29 C         139.2712  148.3176  154.9408 C.3     1  UNL1        0.1038
     30 C         138.6617  150.8095  155.3517 C.3     1  UNL1        0.0897
     31 N         138.7604  149.3974  155.8480 N.3     1  UNL1       -0.2682
     32 C         138.3483  149.0651  157.2515 C.3     1  UNL1        0.0897
@<TRIPOS>BOND
     1    30    31    1
     2    31    32    1
     3    31    29    1
     4    29    26    1
     5    26    27    1
     6    26    25    1
     7    25     1    1
     8     1     2   ar
     9     2     3   ar
    10     3     4   ar
    11     4     5   ar
    12     5     6   ar
    13     6    10    1
    14    10    11   ar
    15    11    12   ar
    16    12    13   ar
    17    13    17    1
    18    17    18    1
    19    18    19    1
    20    19    20   ar
    21    20    21   ar
    22    21    22   ar
    23    22    23   ar
    24    23    24   ar
    25    13    14   ar
    26    14    15   ar
    27    15    16    2
    28     6     7   ar
    29     7     8   ar
    30     8     9   ar
    31     9     1   ar
    32     9     4   ar
    33    15    10   ar
    34    24    19   ar
    35    27    28    1
@<TRIPOS>MOLECULE
*****
 32 35 0 0 0
SMALL
GASTEIGER

@<TRIPOS>ATOM
      1 N         139.4066  140.5731  168.2509 N.ar    1  UNL1       -0.2483
      2 N         138.8105  139.2887  167.7561 N.ar    1  UNL1       -0.1676
      3 C         138.9157  139.2750  166.2599 C.ar    1  UNL1        0.1216
      4 C         139.5767  140.5510  165.8299 C.ar    1  UNL1        0.0396
      5 C         139.9416  141.0860  164.4770 C.ar    1  UNL1        0.0207
      6 C         140.6099  142.4233  164.3545 C.ar    1  UNL1        0.0670
      7 C         140.9133  143.2256  165.5851 C.ar    1  UNL1        0.0191
      8 C         140.5484  142.6906  166.9381 C.ar    1  UNL1        0.0203
      9 C         139.8801  141.3533  167.0605 C.ar    1  UNL1        0.0796
     10 N         140.9748  142.9583  163.0015 N.ar    1  UNL1       -0.2729
     11 C         139.9497  143.6824  162.1799 C.ar    1  UNL1        0.0860
     12 C         140.3145  144.2174  160.8269 C.ar    1  UNL1        0.0561
     13 C         141.7045  144.0284  160.2955 C.ar    1  UNL1        0.1453
     14 C         142.7296  143.3044  161.1171 C.ar    1  UNL1        0.0980
     15 C         142.3647  142.7694  162.4701 C.ar    1  UNL1        0.2679
     16 O         143.3897  142.0453  163.2917 O.2     1  UNL1       -0.2665
     17 O         142.0693  144.5635  158.9425 O.3     1  UNL1       -0.4704
     18 C         141.3286  145.7383  158.3758 C.3     1  UNL1        0.2320
     19 C         140.2713  145.5263  157.3331 C.ar    1  UNL1        0.0212
     20 C         139.7270  144.1507  157.0858 C.ar    1  UNL1       -0.0007
     21 C         138.6697  143.9388  156.0430 C.ar    1  UNL1       -0.0002
     22 C         138.1568  145.1025  155.2476 C.ar    1  UNL1       -0.0000
     23 C         138.7012  146.4782  155.4950 C.ar    1  UNL1       -0.0002
     24 C         139.7584  146.6901  156.5377 C.ar    1  UNL1       -0.0007
     25 C         139.5108  141.0022  169.6845 C.3     1  UNL1        0.1579
     26 C         140.3466  140.2098  170.6456 C.3     1  UNL1        0.1507
     27 O         139.7112  139.1479  171.4933 O.3     1  UNL1       -0.3810
     28 H         138.7621  139.1030  171.2978 H       1  UNL1        0.2105
     29 C         141.8179  140.4793  170.7590 C.3     1  UNL1        0.1038
     30 C         142.7505  139.5729  168.5099 C.3     1  UNL1        0.0897
     31 N         142.6419  140.6755  169.5211 N.3     1  UNL1       -0.2682
     32 C         143.3574  141.9742  169.2944 C.3     1  UNL1        0.0897
@<TRIPOS>BOND
     1    30    31    1
     2    31    32    1
     3    31    29    1
     4    29    26    1
     5    26    27    1
     6    26    25    1
     7    25     1    1
     8     1     2   ar
     9     2     3   ar
    10     3     4   ar
    11     4     5   ar
    12     5     6   ar
    13     6    10    1
    14    10    11   ar
    15    11    12   ar
    16    12    13   ar
    17    13    17    1
    18    17    18    1
    19    18    19    1
    20    19    20   ar
    21    20    21   ar
    22    21    22   ar
    23    22    23   ar
    24    23    24   ar
    25    13    14   ar
    26    14    15   ar
    27    15    16    2
    28     6     7   ar
    29     7     8   ar
    30     8     9   ar
    31     9     1   ar
    32     9     4   ar
    33    15    10   ar
    34    24    19   ar
    35    27    28    1
@<TRIPOS>MOLECULE
*****
 32 35 0 0 0
SMALL
GASTEIGER

@<TRIPOS>ATOM
      1 N         139.2876  139.8352  167.3429 N.ar    1  UNL1       -0.2483
      2 N         138.2157  138.7956  167.4852 N.ar    1  UNL1       -0.1676
      3 C         138.0799  138.0868  166.1703 C.ar    1  UNL1        0.1216
      4 C         139.0679  138.6883  165.2152 C.ar    1  UNL1        0.0396
      5 C         139.3843  138.3917  163.7793 C.ar    1  UNL1        0.0207
      6 C         140.4471  139.1757  163.0681 C.ar    1  UNL1        0.0670
      7 C         141.1935  140.2562  163.7929 C.ar    1  UNL1        0.0191
      8 C         140.8771  140.5529  165.2288 C.ar    1  UNL1        0.0203
      9 C         139.8143  139.7689  165.9399 C.ar    1  UNL1        0.0796
     10 N         140.7636  138.8791  161.6322 N.ar    1  UNL1       -0.2729
     11 C         139.7676  139.2108  160.5607 C.ar    1  UNL1        0.0860
     12 C         140.0840  138.9142  159.1248 C.ar    1  UNL1        0.0561
     13 C         141.3964  138.2859  158.7603 C.ar    1  UNL1        0.1453
     14 C         142.3924  137.9542  159.8317 C.ar    1  UNL1        0.0980
     15 C         142.0759  138.2508  161.2677 C.ar    1  UNL1        0.2679
     16 O         143.0719  137.9190  162.3391 O.2     1  UNL1       -0.2665
     17 O         141.7128  137.9893  157.3243 O.3     1  UNL1       -0.4704
     18 C         142.9991  137.3062  156.9654 C.3     1  UNL1        0.2320
     19 C         142.9817  135.8979  156.4491 C.ar    1  UNL1        0.0212
     20 C         143.1657  134.7495  157.3964 C.ar    1  UNL1       -0.0007
     21 C         143.1483  133.3412  156.8801 C.ar    1  UNL1       -0.0002
     22 C         142.9469  133.0814  155.4166 C.ar    1  UNL1       -0.0000
     23 C         142.7630  134.2298  154.4693 C.ar    1  UNL1       -0.0002
     24 C         142.7803  135.6381  154.9856 C.ar    1  UNL1       -0.0007
     25 C         139.7514  140.7760  168.4152 C.3     1  UNL1        0.1579
     26 C         139.6459  140.3793  169.8580 C.3     1  UNL1        0.1507
     27 O         138.3579  139.8257  170.3914 O.3     1  UNL1       -0.3810
     28 H         137.7011  139.7907  169.6784 H       1  UNL1        0.2105
     29 C         140.8285  140.5362  170.7674 C.3     1  UNL1        0.1038
     30 C         142.5983  138.7964  169.9989 C.3     1  UNL1        0.0897
     31 N         142.2066  140.2193  170.2670 N.3     1  UNL1       -0.2682
     32 C         143.1929  141.3253  170.0346 C.3     1  UNL1        0.0897
@<TRIPOS>BOND
     1    30    31    1
     2    31    32    1
     3    31    29    1
     4    29    26    1
     5    26    27    1
     6    26    25    1
     7    25     1    1
     8     1     2   ar
     9     2     3   ar
    10     3     4   ar
    11     4     5   ar
    12     5     6   ar
    13     6    10    1
    14    10    11   ar
    15    11    12   ar
    16    12    13   ar
    17    13    17    1
    18    17    18    1
    19    18    19    1
    20    19    20   ar
    21    20    21   ar
    22    21    22   ar
    23    22    23   ar
    24    23    24   ar
    25    13    14   ar
    26    14    15   ar
    27    15    16    2
    28     6     7   ar
    29     7     8   ar
    30     8     9   ar
    31     9     1   ar
    32     9     4   ar
    33    15    10   ar
    34    24    19   ar
    35    27    28    1
@<TRIPOS>MOLECULE
*****
 32 35 0 0 0
SMALL
GASTEIGER

@<TRIPOS>ATOM
      1 N         139.5974  139.8740  167.9028 N.ar    1  UNL1       -0.2483
      2 N         138.3466  139.1179  168.2402 N.ar    1  UNL1       -0.1676
      3 C         137.6847  138.7196  166.9544 C.ar    1  UNL1        0.1216
      4 C         138.5264  139.2295  165.8223 C.ar    1  UNL1        0.0396
      5 C         138.3692  139.1363  164.3335 C.ar    1  UNL1        0.0207
      6 C         139.3941  139.7566  163.4309 C.ar    1  UNL1        0.0670
      7 C         140.5762  140.4700  164.0171 C.ar    1  UNL1        0.0191
      8 C         140.7335  140.5632  165.5059 C.ar    1  UNL1        0.0203
      9 C         139.7086  139.9429  166.4085 C.ar    1  UNL1        0.0796
     10 N         139.2369  139.6634  161.9420 N.ar    1  UNL1       -0.2729
     11 C         140.1414  138.7692  161.1469 C.ar    1  UNL1        0.0860
     12 C         139.9843  138.6760  159.6581 C.ar    1  UNL1        0.0561
     13 C         138.9226  139.4771  158.9643 C.ar    1  UNL1        0.1453
     14 C         138.0181  140.3713  159.7595 C.ar    1  UNL1        0.0980
     15 C         138.1753  140.4644  161.2484 C.ar    1  UNL1        0.2679
     16 O         137.2708  141.3587  162.0435 O.2     1  UNL1       -0.2665
     17 O         138.7655  139.3839  157.4755 O.3     1  UNL1       -0.4704
     18 C         139.6852  140.1536  156.5746 C.3     1  UNL1        0.2320
     19 C         140.2475  141.4695  157.0242 C.ar    1  UNL1        0.0212
     20 C         139.3798  142.6930  157.0307 C.ar    1  UNL1       -0.0007
     21 C         139.9422  144.0089  157.4803 C.ar    1  UNL1       -0.0002
     22 C         141.3722  144.1013  157.9234 C.ar    1  UNL1       -0.0000
     23 C         142.2400  142.8778  157.9169 C.ar    1  UNL1       -0.0002
     24 C         141.6776  141.5619  157.4674 C.ar    1  UNL1       -0.0007
     25 C         140.5669  140.4585  168.8869 C.3     1  UNL1        0.1579
     26 C         140.1805  140.5944  170.3300 C.3     1  UNL1        0.1507
     27 O         139.1767  139.6547  170.9294 O.3     1  UNL1       -0.3810
     28 H         138.8790  139.0256  170.2537 H       1  UNL1        0.2105
     29 C         140.7979  141.6701  171.1736 C.3     1  UNL1        0.1038
     30 C         140.4693  143.9437  169.9602 C.3     1  UNL1        0.0897
     31 N         141.3776  142.8919  170.5247 N.3     1  UNL1       -0.2682
     32 C         142.8656  143.0619  170.4403 C.3     1  UNL1        0.0897
@<TRIPOS>BOND
     1    30    31    1
     2    31    32    1
     3    31    29    1
     4    29    26    1
     5    26    27    1
     6    26    25    1
     7    25     1    1
     8     1     2   ar
     9     2     3   ar
    10     3     4   ar
    11     4     5   ar
    12     5     6   ar
    13     6    10    1
    14    10    11   ar
    15    11    12   ar
    16    12    13   ar
    17    13    17    1
    18    17    18    1
    19    18    19    1
    20    19    20   ar
    21    20    21   ar
    22    21    22   ar
    23    22    23   ar
    24    23    24   ar
    25    13    14   ar
    26    14    15   ar
    27    15    16    2
    28     6     7   ar
    29     7     8   ar
    30     8     9   ar
    31     9     1   ar
    32     9     4   ar
    33    15    10   ar
    34    24    19   ar
    35    27    28    1
@<TRIPOS>MOLECULE
*****
 32 35 0 0 0
SMALL
GASTEIGER

@<TRIPOS>ATOM
      1 N         141.4273  139.6884  168.6943 N.ar    1  UNL1       -0.2483
      2 N         142.8935  139.7210  168.3793 N.ar    1  UNL1       -0.1676
      3 C         143.0465  139.7546  166.8875 C.ar    1  UNL1        0.1216
      4 C         141.6748  139.7428  166.2805 C.ar    1  UNL1        0.0396
      5 C         141.2078  139.7640  164.8552 C.ar    1  UNL1        0.0207
      6 C         139.7401  139.7443  164.5466 C.ar    1  UNL1        0.0670
      7 C         138.7393  139.7034  165.6633 C.ar    1  UNL1        0.0191
      8 C         139.2064  139.6822  167.0885 C.ar    1  UNL1        0.0203
      9 C         140.6741  139.7019  167.3971 C.ar    1  UNL1        0.0796
     10 N         139.2730  139.7655  163.1213 N.ar    1  UNL1       -0.2729
     11 C         138.7075  141.0256  162.5361 C.ar    1  UNL1        0.0860
     12 C         138.2404  141.0468  161.1109 C.ar    1  UNL1        0.0561
     13 C         138.3388  139.8080  160.2708 C.ar    1  UNL1        0.1453
     14 C         138.9042  138.5479  160.8560 C.ar    1  UNL1        0.0980
     15 C         139.3713  138.5267  162.2813 C.ar    1  UNL1        0.2679
     16 O         139.9368  137.2667  162.8666 O.2     1  UNL1       -0.2665
     17 O         137.8717  139.8292  158.8456 O.3     1  UNL1       -0.4704
     18 C         138.8534  140.0740  157.7381 C.3     1  UNL1        0.2320
     19 C         140.0182  139.1478  157.5502 C.ar    1  UNL1        0.0212
     20 C         139.8540  137.8888  156.7515 C.ar    1  UNL1       -0.0007
     21 C         141.0189  136.9626  156.5635 C.ar    1  UNL1       -0.0002
     22 C         142.3479  137.2954  157.1742 C.ar    1  UNL1       -0.0000
     23 C         142.5120  138.5545  157.9729 C.ar    1  UNL1       -0.0002
     24 C         141.3472  139.4806  158.1609 C.ar    1  UNL1       -0.0007
     25 C         140.8207  139.6492  170.0656 C.3     1  UNL1        0.1579
     26 C         140.0253  140.8178  170.5676 C.3     1  UNL1        0.1507
     27 O         138.5427  140.8669  170.3452 O.3     1  UNL1       -0.3810
     28 H         138.2612  140.0721  169.8656 H       1  UNL1        0.2105
     29 C         140.7126  141.9372  171.2919 C.3     1  UNL1        0.1038
     30 C         142.8469  143.0733  170.3412 C.3     1  UNL1        0.0897
     31 N         141.3574  143.0478  170.5167 N.3     1  UNL1       -0.2682
     32 C         140.5129  144.1327  169.9171 C.3     1  UNL1        0.0897
@<TRIPOS>BOND
     1    30    31    1
     2    31    32    1
     3    31    29    1
     4    29    26    1
     5    26    27    1
     6    26    25    1
     7    25     1    1
     8     1     2   ar
     9     2     3   ar
    10     3     4   ar
    11     4     5   ar
    12     5     6   ar
    13     6    10    1
    14    10    11   ar
    15    11    12   ar
    16    12    13   ar
    17    13    17    1
    18    17    18    1
    19    18    19    1
    20    19    20   ar
    21    20    21   ar
    22    21    22   ar
    23    22    23   ar
    24    23    24   ar
    25    13    14   ar
    26    14    15   ar
    27    15    16    2
    28     6     7   ar
    29     7     8   ar
    30     8     9   ar
    31     9     1   ar
    32     9     4   ar
    33    15    10   ar
    34    24    19   ar
    35    27    28    1
