@<TRIPOS>MOLECULE
*****
 42 46 0 0 0
SMALL
GASTEIGER

@<TRIPOS>ATOM
      1 C         139.1300  143.5141  161.6760 C.3     1  UNL1        0.0758
      2 C         138.6068  142.5738  160.6311 C.3     1  UNL1        0.0370
      3 C         139.0128  142.7448  159.1973 C.3     1  UNL1        0.0741
      4 N         139.9420  143.8563  158.8084 N.3     1  UNL1       -0.2688
      5 C         140.4652  144.7967  159.8533 C.3     1  UNL1        0.0741
      6 C         140.0592  144.6256  161.2871 C.3     1  UNL1        0.0370
      7 O         140.3784  141.3532  163.3409 O.2     1  UNL1       -0.2528
      8 C         139.3482  142.2626  163.9423 C.2     1  UNL1        0.3009
      9 N         138.7241  143.3431  163.1099 N.am    1  UNL1       -0.2905
     10 N         138.9423  142.0915  165.3762 N.am    1  UNL1       -0.2854
     11 H         138.0479  143.9399  163.5046 H       1  UNL1        0.1509
     12 H         138.2661  142.6884  165.7709 H       1  UNL1        0.1513
     13 C         139.5664  141.0111  166.2086 C.3     1  UNL1        0.1115
     14 C         138.9885  139.6270  166.1968 C.ar    1  UNL1       -0.0031
     15 C         139.4605  138.6257  165.1845 C.ar    1  UNL1       -0.0026
     16 C         138.8825  137.2416  165.1727 C.ar    1  UNL1       -0.0003
     17 C         137.8327  136.8587  166.1732 C.ar    1  UNL1       -0.0000
     18 C         137.3607  137.8598  167.1856 C.ar    1  UNL1       -0.0003
     19 C         137.9386  139.2440  167.1974 C.ar    1  UNL1       -0.0026
     20 C         140.7686  141.3148  167.0529 C.3     1  UNL1        0.0966
     21 N         140.6190  141.4916  168.5348 N.3     1  UNL1       -0.2667
     22 C         140.3045  142.8446  169.1008 C.3     1  UNL1        0.1047
     23 C         140.1550  143.0214  170.5829 C.3     1  UNL1        0.1595
     24 O         140.3199  141.8451  171.4989 O.3     1  UNL1       -0.3508
     25 C         140.6343  140.4920  170.9329 C.3     1  UNL1        0.1595
     26 C         140.7839  140.3152  169.4509 C.3     1  UNL1        0.1047
     27 C         140.3480  144.0274  157.3745 C.3     1  UNL1        0.1007
     28 C         139.6763  145.0639  156.5233 C.ar    1  UNL1        0.0129
     29 C         138.5543  144.8200  155.5581 C.ar    1  UNL1        0.0176
     30 C         138.1932  146.1316  154.9262 C.ar    1  UNL1        0.0799
     31 N         139.0920  147.1861  155.5009 N.ar    1  UNL1       -0.3038
     32 C         140.0086  146.5262  156.4880 C.ar    1  UNL1        0.0772
     33 C         139.0769  148.6444  155.1502 C.ar    1  UNL1        0.0640
     34 C         139.6929  149.1132  153.8654 C.ar    1  UNL1        0.0175
     35 C         139.6777  150.5715  153.5146 C.ar    1  UNL1        0.0053
     36 C         139.0467  151.5611  154.4486 C.ar    1  UNL1        0.0715
     37 C         138.4306  151.0923  155.7334 C.ar    1  UNL1        0.0053
     38 C         138.4458  149.6340  156.0842 C.ar    1  UNL1        0.0175
     39 C         139.0315  153.0194  154.0978 C.3     1  UNL1        0.4186
     40 F         139.0164  154.4777  153.7469 F       1  UNL1       -0.1659
     41 F         138.4782  153.3400  155.4546 F       1  UNL1       -0.1659
     42 F         139.5849  152.6988  152.7409 F       1  UNL1       -0.1659
@<TRIPOS>BOND
     1     7     8    2
     2     8     9   am
     3     9     1    1
     4     1     2    1
     5     2     3    1
     6     3     4    1
     7     4    27    1
     8    27    28    1
     9    28    29   ar
    10    29    30   ar
    11    30    31   ar
    12    31    33    1
    13    33    34   ar
    14    34    35   ar
    15    35    36   ar
    16    36    39    1
    17    39    40    1
    18    39    41    1
    19    39    42    1
    20    36    37   ar
    21    37    38   ar
    22    31    32   ar
    23     4     5    1
    24     5     6    1
    25     8    10   am
    26    10    13    1
    27    13    20    1
    28    20    21    1
    29    21    22    1
    30    22    23    1
    31    23    24    1
    32    24    25    1
    33    25    26    1
    34    13    14    1
    35    14    15   ar
    36    15    16   ar
    37    16    17   ar
    38    17    18   ar
    39    18    19   ar
    40     6     1    1
    41    26    21    1
    42    19    14   ar
    43    32    28   ar
    44    38    33   ar
    45     9    11    1
    46    10    12    1
@<TRIPOS>MOLECULE
*****
 42 46 0 0 0
SMALL
GASTEIGER

@<TRIPOS>ATOM
      1 C         141.1642  138.1599  161.4800 C.3     1  UNL1        0.0758
      2 C         142.5594  137.7495  161.1127 C.3     1  UNL1        0.0370
      3 C         142.9627  137.6707  159.6701 C.3     1  UNL1        0.0741
      4 N         141.9708  138.0022  158.5949 N.3     1  UNL1       -0.2688
      5 C         140.5756  138.4125  158.9622 C.3     1  UNL1        0.0741
      6 C         140.1723  138.4914  160.4048 C.3     1  UNL1        0.0370
      7 O         141.3521  140.7685  162.9497 O.2     1  UNL1       -0.2528
      8 C         140.8548  139.5430  163.6575 C.2     1  UNL1        0.3009
      9 N         140.7609  138.2387  162.9227 N.am    1  UNL1       -0.2905
     10 N         140.4515  139.6218  165.1001 N.am    1  UNL1       -0.2854
     11 H         140.4345  137.4344  163.3872 H       1  UNL1        0.1509
     12 H         140.1251  138.8175  165.5647 H       1  UNL1        0.1513
     13 C         140.5454  140.9261  165.8349 C.3     1  UNL1        0.1115
     14 C         139.6434  142.0645  165.4605 C.ar    1  UNL1       -0.0031
     15 C         138.3520  141.7947  164.7466 C.ar    1  UNL1       -0.0026
     16 C         137.4499  142.9331  164.3721 C.ar    1  UNL1       -0.0003
     17 C         137.8392  144.3414  164.7115 C.ar    1  UNL1       -0.0000
     18 C         139.1306  144.6113  165.4253 C.ar    1  UNL1       -0.0003
     19 C         140.0327  143.4728  165.7998 C.ar    1  UNL1       -0.0026
     20 C         141.5414  141.0920  166.9442 C.3     1  UNL1        0.0966
     21 N         141.0840  141.0690  168.3726 N.3     1  UNL1       -0.2667
     22 C         139.8704  140.2764  168.7588 C.3     1  UNL1        0.1047
     23 C         139.4130  140.2534  170.1872 C.3     1  UNL1        0.1595
     24 O         140.1691  141.0230  171.2293 O.3     1  UNL1       -0.3508
     25 C         141.3826  141.8156  170.8431 C.3     1  UNL1        0.1595
     26 C         141.8400  141.8386  169.4148 C.3     1  UNL1        0.1047
     27 C         142.3742  137.9233  157.1522 C.3     1  UNL1        0.1007
     28 C         142.2434  136.6284  156.4066 C.ar    1  UNL1        0.0129
     29 C         141.1557  136.2761  155.4356 C.ar    1  UNL1        0.0176
     30 C         141.4173  134.8884  154.9299 C.ar    1  UNL1        0.0799
     31 N         142.6668  134.3830  155.5883 N.ar    1  UNL1       -0.3038
     32 C         143.1773  135.4584  156.5009 C.ar    1  UNL1        0.0772
     33 C         143.2954  133.0383  155.3721 C.ar    1  UNL1        0.0640
     34 C         144.2565  132.4883  156.3838 C.ar    1  UNL1        0.0175
     35 C         144.8851  131.1436  156.1675 C.ar    1  UNL1        0.0053
     36 C         144.5525  130.3490  154.9396 C.ar    1  UNL1        0.0715
     37 C         143.5913  130.8990  153.9279 C.ar    1  UNL1        0.0053
     38 C         142.9628  132.2437  154.1441 C.ar    1  UNL1        0.0175
     39 C         145.1811  129.0044  154.7234 C.3     1  UNL1        0.4186
     40 F         145.8096  127.6597  154.5072 F       1  UNL1       -0.1659
     41 F         145.1965  129.2495  153.2436 F       1  UNL1       -0.1659
     42 F         145.1656  128.7591  156.2032 F       1  UNL1       -0.1659
@<TRIPOS>BOND
     1     7     8    2
     2     8     9   am
     3     9     1    1
     4     1     2    1
     5     2     3    1
     6     3     4    1
     7     4    27    1
     8    27    28    1
     9    28    29   ar
    10    29    30   ar
    11    30    31   ar
    12    31    33    1
    13    33    34   ar
    14    34    35   ar
    15    35    36   ar
    16    36    39    1
    17    39    40    1
    18    39    41    1
    19    39    42    1
    20    36    37   ar
    21    37    38   ar
    22    31    32   ar
    23     4     5    1
    24     5     6    1
    25     8    10   am
    26    10    13    1
    27    13    20    1
    28    20    21    1
    29    21    22    1
    30    22    23    1
    31    23    24    1
    32    24    25    1
    33    25    26    1
    34    13    14    1
    35    14    15   ar
    36    15    16   ar
    37    16    17   ar
    38    17    18   ar
    39    18    19   ar
    40     6     1    1
    41    26    21    1
    42    19    14   ar
    43    32    28   ar
    44    38    33   ar
    45     9    11    1
    46    10    12    1
@<TRIPOS>MOLECULE
*****
 42 46 0 0 0
SMALL
GASTEIGER

@<TRIPOS>ATOM
      1 C         143.4181  139.9895  161.1367 C.3     1  UNL1        0.0758
      2 C         143.9147  140.9393  160.0873 C.3     1  UNL1        0.0370
      3 C         143.8658  140.5497  158.6396 C.3     1  UNL1        0.0741
      4 N         143.3203  139.2104  158.2414 N.3     1  UNL1       -0.2688
      5 C         142.8236  138.2606  159.2908 C.3     1  UNL1        0.0741
      6 C         142.8726  138.6502  160.7384 C.3     1  UNL1        0.0370
      7 O         140.9656  141.0736  162.4821 O.2     1  UNL1       -0.2528
      8 C         142.2408  140.9211  163.2571 C.2     1  UNL1        0.3009
      9 N         143.4670  140.3791  162.5845 N.am    1  UNL1       -0.2905
     10 N         142.2897  141.3106  164.7049 N.am    1  UNL1       -0.2854
     11 H         144.3039  140.2790  163.0931 H       1  UNL1        0.1509
     12 H         143.1266  141.2105  165.2136 H       1  UNL1        0.1513
     13 C         141.0634  141.8526  165.3776 C.3     1  UNL1        0.1115
     14 C         140.0837  140.9153  166.0191 C.ar    1  UNL1       -0.0031
     15 C         139.0933  140.1713  165.1731 C.ar    1  UNL1       -0.0026
     16 C         138.1136  139.2340  165.8146 C.ar    1  UNL1       -0.0003
     17 C         138.1241  139.0407  167.3020 C.ar    1  UNL1       -0.0000
     18 C         139.1144  139.7847  168.1480 C.ar    1  UNL1       -0.0003
     19 C         140.0942  140.7221  167.5065 C.ar    1  UNL1       -0.0026
     20 C         140.8169  143.3319  165.4087 C.3     1  UNL1        0.0966
     21 N         140.0502  143.9880  164.2990 N.3     1  UNL1       -0.2667
     22 C         140.7431  144.9390  163.3687 C.3     1  UNL1        0.1047
     23 C         139.9763  145.5952  162.2590 C.3     1  UNL1        0.1595
     24 O         138.5166  145.3003  162.0795 O.3     1  UNL1       -0.3508
     25 C         137.8236  144.3493  163.0098 C.3     1  UNL1        0.1595
     26 C         138.5904  143.6931  164.1195 C.3     1  UNL1        0.1047
     27 C         143.2714  138.8208  156.7936 C.3     1  UNL1        0.1007
     28 C         142.5854  137.5523  156.3810 C.ar    1  UNL1        0.0129
     29 C         141.2619  137.4527  155.6822 C.ar    1  UNL1        0.0176
     30 C         140.9611  135.9995  155.4641 C.ar    1  UNL1        0.0799
     31 N         142.0987  135.2008  156.0281 N.ar    1  UNL1       -0.3038
     32 C         143.1026  136.1606  156.5948 C.ar    1  UNL1        0.0772
     33 C         142.2124  133.7052  156.0258 C.ar    1  UNL1        0.0640
     34 C         141.3220  132.8867  155.1387 C.ar    1  UNL1        0.0175
     35 C         141.4357  131.3910  155.1364 C.ar    1  UNL1        0.0053
     36 C         142.4399  130.7139  156.0212 C.ar    1  UNL1        0.0715
     37 C         143.3304  131.5323  156.9084 C.ar    1  UNL1        0.0053
     38 C         143.2167  133.0280  156.9107 C.ar    1  UNL1        0.0175
     39 C         142.5536  129.2182  156.0189 C.3     1  UNL1        0.4186
     40 F         142.6674  127.7225  156.0167 F       1  UNL1       -0.1659
     41 F         142.0222  129.1799  154.6167 F       1  UNL1       -0.1659
     42 F         143.0850  129.2564  157.4212 F       1  UNL1       -0.1659
@<TRIPOS>BOND
     1     7     8    2
     2     8     9   am
     3     9     1    1
     4     1     2    1
     5     2     3    1
     6     3     4    1
     7     4    27    1
     8    27    28    1
     9    28    29   ar
    10    29    30   ar
    11    30    31   ar
    12    31    33    1
    13    33    34   ar
    14    34    35   ar
    15    35    36   ar
    16    36    39    1
    17    39    40    1
    18    39    41    1
    19    39    42    1
    20    36    37   ar
    21    37    38   ar
    22    31    32   ar
    23     4     5    1
    24     5     6    1
    25     8    10   am
    26    10    13    1
    27    13    20    1
    28    20    21    1
    29    21    22    1
    30    22    23    1
    31    23    24    1
    32    24    25    1
    33    25    26    1
    34    13    14    1
    35    14    15   ar
    36    15    16   ar
    37    16    17   ar
    38    17    18   ar
    39    18    19   ar
    40     6     1    1
    41    26    21    1
    42    19    14   ar
    43    32    28   ar
    44    38    33   ar
    45     9    11    1
    46    10    12    1
@<TRIPOS>MOLECULE
*****
 42 46 0 0 0
SMALL
GASTEIGER

@<TRIPOS>ATOM
      1 C         143.3029  139.5447  160.9229 C.3     1  UNL1        0.0758
      2 C         142.7377  138.2241  160.4912 C.3     1  UNL1        0.0370
      3 C         142.6411  137.8906  159.0320 C.3     1  UNL1        0.0741
      4 N         143.1097  138.8779  158.0044 N.3     1  UNL1       -0.2688
      5 C         143.6748  140.1985  158.4361 C.3     1  UNL1        0.0741
      6 C         143.7714  140.5320  159.8954 C.3     1  UNL1        0.0370
      7 O         140.9986  140.8689  162.3148 O.2     1  UNL1       -0.2528
      8 C         142.2474  140.5403  163.0781 C.2     1  UNL1        0.3009
      9 N         143.3995  139.8782  162.3822 N.am    1  UNL1       -0.2905
     10 N         142.3440  140.8738  164.5375 N.am    1  UNL1       -0.2854
     11 H         144.2190  139.6626  162.8833 H       1  UNL1        0.1509
     12 H         143.1635  140.6581  165.0385 H       1  UNL1        0.1513
     13 C         141.1919  141.5358  165.2333 C.3     1  UNL1        0.1115
     14 C         140.1512  140.7021  165.9202 C.ar    1  UNL1       -0.0031
     15 C         140.1473  140.5897  167.4160 C.ar    1  UNL1       -0.0026
     16 C         139.1067  139.7560  168.1028 C.ar    1  UNL1       -0.0003
     17 C         138.0698  139.0345  167.2939 C.ar    1  UNL1       -0.0000
     18 C         138.0736  139.1468  165.7981 C.ar    1  UNL1       -0.0003
     19 C         139.1143  139.9806  165.1112 C.ar    1  UNL1       -0.0026
     20 C         141.0805  143.0317  165.2424 C.3     1  UNL1        0.0966
     21 N         140.2382  143.7273  164.2145 N.3     1  UNL1       -0.2667
     22 C         138.7422  143.6510  164.2943 C.3     1  UNL1        0.1047
     23 C         137.8999  144.3466  163.2663 C.3     1  UNL1        0.1595
     24 O         138.5535  145.1185  162.1587 O.3     1  UNL1       -0.3508
     25 C         140.0495  145.1948  162.0789 C.3     1  UNL1        0.1595
     26 C         140.8918  144.4992  163.1068 C.3     1  UNL1        0.1047
     27 C         143.0131  138.5444  156.5451 C.3     1  UNL1        0.1007
     28 C         142.6774  137.1469  156.1158 C.ar    1  UNL1        0.0129
     29 C         141.3658  136.6897  155.5495 C.ar    1  UNL1        0.0176
     30 C         141.4721  135.2215  155.2611 C.ar    1  UNL1        0.0799
     31 N         142.8494  134.7714  155.6491 N.ar    1  UNL1       -0.3038
     32 C         143.5943  135.9613  156.1773 C.ar    1  UNL1        0.0772
     33 C         143.3873  133.3762  155.5298 C.ar    1  UNL1        0.0640
     34 C         143.0602  132.5469  154.3235 C.ar    1  UNL1        0.0175
     35 C         143.5981  131.1517  154.2042 C.ar    1  UNL1        0.0053
     36 C         144.4631  130.5860  155.2911 C.ar    1  UNL1        0.0715
     37 C         144.7903  131.4153  156.4974 C.ar    1  UNL1        0.0053
     38 C         144.2524  132.8104  156.6167 C.ar    1  UNL1        0.0175
     39 C         145.0010  129.1909  155.1718 C.3     1  UNL1        0.4186
     40 F         145.5389  127.7957  155.0526 F       1  UNL1       -0.1659
     41 F         144.8774  129.2708  153.6791 F       1  UNL1       -0.1659
     42 F         145.1247  129.1108  156.6647 F       1  UNL1       -0.1659
@<TRIPOS>BOND
     1     7     8    2
     2     8     9   am
     3     9     1    1
     4     1     2    1
     5     2     3    1
     6     3     4    1
     7     4    27    1
     8    27    28    1
     9    28    29   ar
    10    29    30   ar
    11    30    31   ar
    12    31    33    1
    13    33    34   ar
    14    34    35   ar
    15    35    36   ar
    16    36    39    1
    17    39    40    1
    18    39    41    1
    19    39    42    1
    20    36    37   ar
    21    37    38   ar
    22    31    32   ar
    23     4     5    1
    24     5     6    1
    25     8    10   am
    26    10    13    1
    27    13    20    1
    28    20    21    1
    29    21    22    1
    30    22    23    1
    31    23    24    1
    32    24    25    1
    33    25    26    1
    34    13    14    1
    35    14    15   ar
    36    15    16   ar
    37    16    17   ar
    38    17    18   ar
    39    18    19   ar
    40     6     1    1
    41    26    21    1
    42    19    14   ar
    43    32    28   ar
    44    38    33   ar
    45     9    11    1
    46    10    12    1
@<TRIPOS>MOLECULE
*****
 42 46 0 0 0
SMALL
GASTEIGER

@<TRIPOS>ATOM
      1 C         140.2657  139.2514  161.5742 C.3     1  UNL1        0.0758
      2 C         141.4013  138.2718  161.6029 C.3     1  UNL1        0.0370
      3 C         142.1793  137.9887  160.3521 C.3     1  UNL1        0.0741
      4 N         141.8217  138.6853  159.0726 N.3     1  UNL1       -0.2688
      5 C         140.6861  139.6648  159.0440 C.3     1  UNL1        0.0741
      6 C         139.9081  139.9479  160.2948 C.3     1  UNL1        0.0370
      7 O         141.4891  140.9016  163.7606 O.2     1  UNL1       -0.2528
      8 C         140.0994  140.3596  163.9182 C.2     1  UNL1        0.3009
      9 N         139.4877  139.5345  162.8251 N.am    1  UNL1       -0.2905
     10 N         139.3213  140.6427  165.1691 N.am    1  UNL1       -0.2854
     11 H         138.5755  139.1788  162.9286 H       1  UNL1        0.1509
     12 H         138.4092  140.2869  165.2726 H       1  UNL1        0.1513
     13 C         139.9330  141.4678  166.2622 C.3     1  UNL1        0.1115
     14 C         140.5528  140.7959  167.4515 C.ar    1  UNL1       -0.0031
     15 C         141.9366  140.2252  167.3539 C.ar    1  UNL1       -0.0026
     16 C         142.5565  139.5534  168.5432 C.ar    1  UNL1       -0.0003
     17 C         141.7926  139.4523  169.8301 C.ar    1  UNL1       -0.0000
     18 C         140.4088  140.0229  169.9278 C.ar    1  UNL1       -0.0003
     19 C         139.7889  140.6948  168.7385 C.ar    1  UNL1       -0.0026
     20 C         139.9248  142.9647  166.1661 C.3     1  UNL1        0.0966
     21 N         139.5122  143.6319  164.8877 N.3     1  UNL1       -0.2667
     22 C         138.0727  143.6197  164.4660 C.3     1  UNL1        0.1047
     23 C         137.6601  144.2869  163.1874 C.3     1  UNL1        0.1595
     24 O         138.6869  144.9663  162.3307 O.3     1  UNL1       -0.3508
     25 C         140.1263  144.9785  162.7524 C.3     1  UNL1        0.1595
     26 C         140.5390  144.3113  164.0308 C.3     1  UNL1        0.1047
     27 C         142.5997  138.4021  157.8218 C.3     1  UNL1        0.1007
     28 C         142.3642  137.1293  157.0640 C.ar    1  UNL1        0.0129
     29 C         141.1715  136.8203  156.2085 C.ar    1  UNL1        0.0176
     30 C         141.3502  135.4420  155.6444 C.ar    1  UNL1        0.0799
     31 N         142.6535  134.8991  156.1512 N.ar    1  UNL1       -0.3038
     32 C         143.2801  135.9419  157.0286 C.ar    1  UNL1        0.0772
     33 C         143.2289  133.5502  155.8360 C.ar    1  UNL1        0.0640
     34 C         144.2348  132.9295  156.7595 C.ar    1  UNL1        0.0175
     35 C         144.8102  131.5806  156.4443 C.ar    1  UNL1        0.0053
     36 C         144.3798  130.8524  155.2057 C.ar    1  UNL1        0.0715
     37 C         143.3739  131.4731  154.2821 C.ar    1  UNL1        0.0053
     38 C         142.7985  132.8219  154.5973 C.ar    1  UNL1        0.0175
     39 C         144.9553  129.5036  154.8905 C.3     1  UNL1        0.4186
     40 F         145.5308  128.1547  154.5752 F       1  UNL1       -0.1659
     41 F         144.9475  129.1591  156.3504 F       1  UNL1       -0.1659
     42 F         144.9630  129.8480  153.4305 F       1  UNL1       -0.1659
@<TRIPOS>BOND
     1     7     8    2
     2     8     9   am
     3     9     1    1
     4     1     2    1
     5     2     3    1
     6     3     4    1
     7     4    27    1
     8    27    28    1
     9    28    29   ar
    10    29    30   ar
    11    30    31   ar
    12    31    33    1
    13    33    34   ar
    14    34    35   ar
    15    35    36   ar
    16    36    39    1
    17    39    40    1
    18    39    41    1
    19    39    42    1
    20    36    37   ar
    21    37    38   ar
    22    31    32   ar
    23     4     5    1
    24     5     6    1
    25     8    10   am
    26    10    13    1
    27    13    20    1
    28    20    21    1
    29    21    22    1
    30    22    23    1
    31    23    24    1
    32    24    25    1
    33    25    26    1
    34    13    14    1
    35    14    15   ar
    36    15    16   ar
    37    16    17   ar
    38    17    18   ar
    39    18    19   ar
    40     6     1    1
    41    26    21    1
    42    19    14   ar
    43    32    28   ar
    44    38    33   ar
    45     9    11    1
    46    10    12    1
@<TRIPOS>MOLECULE
*****
 42 46 0 0 0
SMALL
GASTEIGER

@<TRIPOS>ATOM
      1 C         141.3728  138.3407  161.7338 C.3     1  UNL1        0.0758
      2 C         142.7842  138.0095  161.3490 C.3     1  UNL1        0.0370
      3 C         143.1667  137.9252  159.9011 C.3     1  UNL1        0.0741
      4 N         142.1377  138.1721  158.8380 N.3     1  UNL1       -0.2688
      5 C         140.7262  138.5032  159.2228 C.3     1  UNL1        0.0741
      6 C         140.3438  138.5875  160.6707 C.3     1  UNL1        0.0370
      7 O         141.3295  141.0001  163.1215 O.2     1  UNL1       -0.2528
      8 C         140.9687  139.7547  163.8756 C.2     1  UNL1        0.3009
      9 N         140.9903  138.4250  163.1818 N.am    1  UNL1       -0.2905
     10 N         140.5862  139.8390  165.3237 N.am    1  UNL1       -0.2854
     11 H         140.7535  137.6076  163.6768 H       1  UNL1        0.1509
     12 H         140.3493  139.0216  165.8186 H       1  UNL1        0.1513
     13 C         140.5646  141.1687  166.0175 C.3     1  UNL1        0.1115
     14 C         139.6175  142.2381  165.5598 C.ar    1  UNL1       -0.0031
     15 C         139.9195  143.6795  165.8448 C.ar    1  UNL1       -0.0026
     16 C         138.9724  144.7489  165.3871 C.ar    1  UNL1       -0.0003
     17 C         137.7234  144.3769  164.6445 C.ar    1  UNL1       -0.0000
     18 C         137.4213  142.9356  164.3596 C.ar    1  UNL1       -0.0003
     19 C         138.3684  141.8661  164.8172 C.ar    1  UNL1       -0.0026
     20 C         141.4900  141.4291  167.1689 C.3     1  UNL1        0.0966
     21 N         141.0455  141.1321  168.5704 N.3     1  UNL1       -0.2667
     22 C         141.9586  141.4228  169.7243 C.3     1  UNL1        0.1047
     23 C         141.5140  141.1258  171.1259 C.3     1  UNL1        0.1595
     24 O         140.1564  140.5380  171.3733 O.3     1  UNL1       -0.3508
     25 C         139.2432  140.2473  170.2194 C.3     1  UNL1        0.1595
     26 C         139.6877  140.5443  168.8179 C.3     1  UNL1        0.1047
     27 C         142.5202  138.0877  157.3899 C.3     1  UNL1        0.1007
     28 C         143.0130  136.7913  156.8187 C.ar    1  UNL1        0.0129
     29 C         143.6310  136.6027  155.4650 C.ar    1  UNL1        0.0176
     30 C         143.9743  135.1507  155.3105 C.ar    1  UNL1        0.0799
     31 N         143.5686  134.4419  156.5687 N.ar    1  UNL1       -0.3038
     32 C         142.9745  135.4559  157.5008 C.ar    1  UNL1        0.0772
     33 C         143.7289  132.9766  156.8461 C.ar    1  UNL1        0.0640
     34 C         142.7508  131.9936  156.2743 C.ar    1  UNL1        0.0175
     35 C         142.9111  130.5283  156.5517 C.ar    1  UNL1        0.0053
     36 C         144.0495  130.0458  157.4009 C.ar    1  UNL1        0.0715
     37 C         145.0276  131.0288  157.9728 C.ar    1  UNL1        0.0053
     38 C         144.8674  132.4941  157.6954 C.ar    1  UNL1        0.0175
     39 C         144.2097  128.5805  157.6783 C.3     1  UNL1        0.4186
     40 F         144.3701  127.1151  157.9557 F       1  UNL1       -0.1659
     41 F         143.2098  128.2679  156.6048 F       1  UNL1       -0.1659
     42 F         145.2097  128.8930  158.7519 F       1  UNL1       -0.1659
@<TRIPOS>BOND
     1     7     8    2
     2     8     9   am
     3     9     1    1
     4     1     2    1
     5     2     3    1
     6     3     4    1
     7     4    27    1
     8    27    28    1
     9    28    29   ar
    10    29    30   ar
    11    30    31   ar
    12    31    33    1
    13    33    34   ar
    14    34    35   ar
    15    35    36   ar
    16    36    39    1
    17    39    40    1
    18    39    41    1
    19    39    42    1
    20    36    37   ar
    21    37    38   ar
    22    31    32   ar
    23     4     5    1
    24     5     6    1
    25     8    10   am
    26    10    13    1
    27    13    20    1
    28    20    21    1
    29    21    22    1
    30    22    23    1
    31    23    24    1
    32    24    25    1
    33    25    26    1
    34    13    14    1
    35    14    15   ar
    36    15    16   ar
    37    16    17   ar
    38    17    18   ar
    39    18    19   ar
    40     6     1    1
    41    26    21    1
    42    19    14   ar
    43    32    28   ar
    44    38    33   ar
    45     9    11    1
    46    10    12    1
@<TRIPOS>MOLECULE
*****
 42 46 0 0 0
SMALL
GASTEIGER

@<TRIPOS>ATOM
      1 C         143.2029  142.7366  158.1252 C.3     1  UNL1        0.0758
      2 C         142.1083  142.2653  157.2143 C.3     1  UNL1        0.0370
      3 C         142.3556  141.1244  156.2725 C.3     1  UNL1        0.0741
      4 N         143.6975  140.4548  156.2415 N.3     1  UNL1       -0.2688
      5 C         144.7921  140.9262  157.1523 C.3     1  UNL1        0.0741
      6 C         144.5448  142.0671  158.0942 C.3     1  UNL1        0.0370
      7 O         142.5005  142.1913  160.9904 O.2     1  UNL1       -0.2528
      8 C         142.6044  143.6049  160.4996 C.2     1  UNL1        0.3009
      9 N         142.9556  143.8776  159.0671 N.am    1  UNL1       -0.2905
     10 N         142.3572  144.7459  161.4416 N.am    1  UNL1       -0.2854
     11 H         143.0238  144.8054  158.7450 H       1  UNL1        0.1509
     12 H         142.4254  145.6737  161.1195 H       1  UNL1        0.1513
     13 C         142.0060  144.4732  162.8741 C.3     1  UNL1        0.1115
     14 C         140.5675  144.3906  163.2910 C.ar    1  UNL1       -0.0031
     15 C         139.5188  143.9973  162.2932 C.ar    1  UNL1       -0.0026
     16 C         138.0803  143.9147  162.7101 C.ar    1  UNL1       -0.0003
     17 C         137.6904  144.2254  164.1248 C.ar    1  UNL1       -0.0000
     18 C         138.7390  144.6187  165.1226 C.ar    1  UNL1       -0.0003
     19 C         140.1776  144.7013  164.7057 C.ar    1  UNL1       -0.0026
     20 C         143.0933  144.2830  163.8898 C.3     1  UNL1        0.0966
     21 N         143.7099  142.9295  164.0840 N.3     1  UNL1       -0.2667
     22 C         145.0276  142.6068  163.4440 C.3     1  UNL1        0.1047
     23 C         145.6441  141.2531  163.6382 C.3     1  UNL1        0.1595
     24 O         144.9430  140.2223  164.4724 O.3     1  UNL1       -0.3508
     25 C         143.6254  140.5451  165.1123 C.3     1  UNL1        0.1595
     26 C         143.0088  141.8986  164.9182 C.3     1  UNL1        0.1047
     27 C         143.9448  139.3139  155.2996 C.3     1  UNL1        0.1007
     28 C         143.3744  137.9588  155.5969 C.ar    1  UNL1        0.0129
     29 C         141.9338  137.6512  155.8794 C.ar    1  UNL1        0.0176
     30 C         141.8135  136.1757  156.1210 C.ar    1  UNL1        0.0799
     31 N         143.1799  135.5713  155.9878 N.ar    1  UNL1       -0.3038
     32 C         144.1446  136.6733  155.6639 C.ar    1  UNL1        0.0772
     33 C         143.5216  134.1198  156.1500 C.ar    1  UNL1        0.0640
     34 C         144.1506  133.6350  157.4225 C.ar    1  UNL1        0.0175
     35 C         144.4923  132.1835  157.5847 C.ar    1  UNL1        0.0053
     36 C         144.2050  131.2168  156.4745 C.ar    1  UNL1        0.0715
     37 C         143.5760  131.7015  155.2019 C.ar    1  UNL1        0.0053
     38 C         143.2343  133.1530  155.0397 C.ar    1  UNL1        0.0175
     39 C         144.5467  129.7653  156.6367 C.3     1  UNL1        0.4186
     40 F         144.8883  128.3137  156.7990 F       1  UNL1       -0.1659
     41 F         145.3064  129.7996  155.3439 F       1  UNL1       -0.1659
     42 F         143.7869  129.7309  157.9297 F       1  UNL1       -0.1659
@<TRIPOS>BOND
     1     7     8    2
     2     8     9   am
     3     9     1    1
     4     1     2    1
     5     2     3    1
     6     3     4    1
     7     4    27    1
     8    27    28    1
     9    28    29   ar
    10    29    30   ar
    11    30    31   ar
    12    31    33    1
    13    33    34   ar
    14    34    35   ar
    15    35    36   ar
    16    36    39    1
    17    39    40    1
    18    39    41    1
    19    39    42    1
    20    36    37   ar
    21    37    38   ar
    22    31    32   ar
    23     4     5    1
    24     5     6    1
    25     8    10   am
    26    10    13    1
    27    13    20    1
    28    20    21    1
    29    21    22    1
    30    22    23    1
    31    23    24    1
    32    24    25    1
    33    25    26    1
    34    13    14    1
    35    14    15   ar
    36    15    16   ar
    37    16    17   ar
    38    17    18   ar
    39    18    19   ar
    40     6     1    1
    41    26    21    1
    42    19    14   ar
    43    32    28   ar
    44    38    33   ar
    45     9    11    1
    46    10    12    1
@<TRIPOS>MOLECULE
*****
 42 46 0 0 0
SMALL
GASTEIGER

@<TRIPOS>ATOM
      1 C         143.1575  142.7274  158.0700 C.3     1  UNL1        0.0758
      2 C         144.5168  142.1002  157.9762 C.3     1  UNL1        0.0370
      3 C         144.7517  140.9564  157.0346 C.3     1  UNL1        0.0741
      4 N         143.6272  140.4399  156.1868 N.3     1  UNL1       -0.2688
      5 C         142.2679  141.0671  156.2806 C.3     1  UNL1        0.0741
      6 C         142.0331  142.2108  157.2222 C.3     1  UNL1        0.0370
      7 O         142.4619  142.1905  160.9384 O.2     1  UNL1       -0.2528
      8 C         142.5748  143.6028  160.4457 C.2     1  UNL1        0.3009
      9 N         142.9226  143.8712  159.0116 N.am    1  UNL1       -0.2905
     10 N         142.3399  144.7466  161.3873 N.am    1  UNL1       -0.2854
     11 H         142.9967  144.7982  158.6882 H       1  UNL1        0.1509
     12 H         142.4140  145.6735  161.0640 H       1  UNL1        0.1513
     13 C         141.9921  144.4781  162.8215 C.3     1  UNL1        0.1115
     14 C         140.5548  144.3718  163.2374 C.ar    1  UNL1       -0.0031
     15 C         140.1587  144.6771  164.6516 C.ar    1  UNL1       -0.0026
     16 C         138.7214  144.5707  165.0675 C.ar    1  UNL1       -0.0003
     17 C         137.6803  144.1590  164.0692 C.ar    1  UNL1       -0.0000
     18 C         138.0764  143.8537  162.6551 C.ar    1  UNL1       -0.0003
     19 C         139.5137  143.9600  162.2391 C.ar    1  UNL1       -0.0026
     20 C         143.0815  144.3160  163.8398 C.3     1  UNL1        0.0966
     21 N         143.7135  142.9728  164.0546 N.3     1  UNL1       -0.2667
     22 C         145.0389  142.6585  163.4265 C.3     1  UNL1        0.1047
     23 C         145.6710  141.3152  163.6413 C.3     1  UNL1        0.1595
     24 O         144.9776  140.2862  164.4841 O.3     1  UNL1       -0.3508
     25 C         143.6522  140.6005  165.1122 C.3     1  UNL1        0.1595
     26 C         143.0202  141.9437  164.8974 C.3     1  UNL1        0.1047
     27 C         143.8621  139.2960  155.2452 C.3     1  UNL1        0.1007
     28 C         143.3290  137.9329  155.5733 C.ar    1  UNL1        0.0129
     29 C         141.8982  137.5936  155.8695 C.ar    1  UNL1        0.0176
     30 C         141.8179  136.1208  156.1420 C.ar    1  UNL1        0.0799
     31 N         143.1992  135.5498  156.0143 N.ar    1  UNL1       -0.3038
     32 C         144.1330  136.6697  155.6628 C.ar    1  UNL1        0.0772
     33 C         143.5797  134.1114  156.2046 C.ar    1  UNL1        0.0640
     34 C         143.3655  133.1257  155.0945 C.ar    1  UNL1        0.0175
     35 C         143.7460  131.6873  155.2848 C.ar    1  UNL1        0.0053
     36 C         144.3407  131.2346  156.5853 C.ar    1  UNL1        0.0715
     37 C         144.5548  132.2203  157.6955 C.ar    1  UNL1        0.0053
     38 C         144.1743  133.6586  157.5052 C.ar    1  UNL1        0.0175
     39 C         144.7212  129.7962  156.7756 C.3     1  UNL1        0.4186
     40 F         145.1016  128.3578  156.9660 F       1  UNL1       -0.1659
     41 F         145.1273  129.7129  155.3340 F       1  UNL1       -0.1659
     42 F         144.3151  129.8795  158.2172 F       1  UNL1       -0.1659
@<TRIPOS>BOND
     1     7     8    2
     2     8     9   am
     3     9     1    1
     4     1     2    1
     5     2     3    1
     6     3     4    1
     7     4    27    1
     8    27    28    1
     9    28    29   ar
    10    29    30   ar
    11    30    31   ar
    12    31    33    1
    13    33    34   ar
    14    34    35   ar
    15    35    36   ar
    16    36    39    1
    17    39    40    1
    18    39    41    1
    19    39    42    1
    20    36    37   ar
    21    37    38   ar
    22    31    32   ar
    23     4     5    1
    24     5     6    1
    25     8    10   am
    26    10    13    1
    27    13    20    1
    28    20    21    1
    29    21    22    1
    30    22    23    1
    31    23    24    1
    32    24    25    1
    33    25    26    1
    34    13    14    1
    35    14    15   ar
    36    15    16   ar
    37    16    17   ar
    38    17    18   ar
    39    18    19   ar
    40     6     1    1
    41    26    21    1
    42    19    14   ar
    43    32    28   ar
    44    38    33   ar
    45     9    11    1
    46    10    12    1
@<TRIPOS>MOLECULE
*****
 42 46 0 0 0
SMALL
GASTEIGER

@<TRIPOS>ATOM
      1 C         140.0270  138.3669  160.6697 C.3     1  UNL1        0.0758
      2 C         139.5236  138.6119  159.2781 C.3     1  UNL1        0.0370
      3 C         140.4676  138.5363  158.1150 C.3     1  UNL1        0.0741
      4 N         141.9150  138.2156  158.3433 N.3     1  UNL1       -0.2688
      5 C         142.4184  137.9705  159.7349 C.3     1  UNL1        0.0741
      6 C         141.4744  138.0462  160.8981 C.3     1  UNL1        0.0370
      7 O         140.5830  140.2566  162.9324 O.2     1  UNL1       -0.2528
      8 C         139.3610  139.3873  162.9643 C.2     1  UNL1        0.3009
      9 N         139.0829  138.4425  161.8330 N.am    1  UNL1       -0.2905
     10 N         138.4169  139.4630  164.1276 N.am    1  UNL1       -0.2854
     11 H         138.2809  137.8720  161.8539 H       1  UNL1        0.1509
     12 H         137.6148  138.8925  164.1485 H       1  UNL1        0.1513
     13 C         138.6949  140.4078  165.2589 C.3     1  UNL1        0.1115
     14 C         138.7330  141.8863  165.0090 C.ar    1  UNL1       -0.0031
     15 C         139.8416  142.7162  165.5857 C.ar    1  UNL1       -0.0026
     16 C         139.8797  144.1947  165.3359 C.ar    1  UNL1       -0.0003
     17 C         138.8092  144.8435  164.5094 C.ar    1  UNL1       -0.0000
     18 C         137.7006  144.0137  163.9327 C.ar    1  UNL1       -0.0003
     19 C         137.6625  142.5351  164.1825 C.ar    1  UNL1       -0.0026
     20 C         138.9349  139.8741  166.6401 C.3     1  UNL1        0.0966
     21 N         140.3372  139.6785  167.1354 N.3     1  UNL1       -0.2667
     22 C         140.6741  139.9698  168.5677 C.3     1  UNL1        0.1047
     23 C         142.0765  139.7742  169.0630 C.3     1  UNL1        0.1595
     24 O         143.1418  139.2873  168.1260 O.3     1  UNL1       -0.3508
     25 C         142.8048  138.9961  166.6936 C.3     1  UNL1        0.1595
     26 C         141.4026  139.1917  166.1983 C.3     1  UNL1        0.1047
     27 C         142.8591  138.1399  157.1801 C.3     1  UNL1        0.1007
     28 C         143.0301  136.8490  156.4356 C.ar    1  UNL1        0.0129
     29 C         142.8649  136.6551  154.9574 C.ar    1  UNL1        0.0176
     30 C         143.1290  135.2116  154.6469 C.ar    1  UNL1        0.0799
     31 N         143.4574  134.5133  155.9333 N.ar    1  UNL1       -0.3038
     32 C         143.3963  135.5253  157.0387 C.ar    1  UNL1        0.0772
     33 C         143.7888  133.0584  156.0871 C.ar    1  UNL1        0.0640
     34 C         143.5347  132.1076  154.9552 C.ar    1  UNL1        0.0175
     35 C         143.8661  130.6528  155.1090 C.ar    1  UNL1        0.0053
     36 C         144.4515  130.1488  156.3946 C.ar    1  UNL1        0.0715
     37 C         144.7057  131.0996  157.5266 C.ar    1  UNL1        0.0053
     38 C         144.3743  132.5544  157.3728 C.ar    1  UNL1        0.0175
     39 C         144.7829  128.6940  156.5484 C.3     1  UNL1        0.4186
     40 F         145.1143  127.2392  156.7023 F       1  UNL1       -0.1659
     41 F         145.5564  128.7344  155.2639 F       1  UNL1       -0.1659
     42 F         144.0094  128.6536  157.8331 F       1  UNL1       -0.1659
@<TRIPOS>BOND
     1     7     8    2
     2     8     9   am
     3     9     1    1
     4     1     2    1
     5     2     3    1
     6     3     4    1
     7     4    27    1
     8    27    28    1
     9    28    29   ar
    10    29    30   ar
    11    30    31   ar
    12    31    33    1
    13    33    34   ar
    14    34    35   ar
    15    35    36   ar
    16    36    39    1
    17    39    40    1
    18    39    41    1
    19    39    42    1
    20    36    37   ar
    21    37    38   ar
    22    31    32   ar
    23     4     5    1
    24     5     6    1
    25     8    10   am
    26    10    13    1
    27    13    20    1
    28    20    21    1
    29    21    22    1
    30    22    23    1
    31    23    24    1
    32    24    25    1
    33    25    26    1
    34    13    14    1
    35    14    15   ar
    36    15    16   ar
    37    16    17   ar
    38    17    18   ar
    39    18    19   ar
    40     6     1    1
    41    26    21    1
    42    19    14   ar
    43    32    28   ar
    44    38    33   ar
    45     9    11    1
    46    10    12    1
