@<TRIPOS>MOLECULE
*****
 36 40 0 0 0
SMALL
GASTEIGER

@<TRIPOS>ATOM
      1 C         139.0910  141.7288  163.2783 C.ar    1  UNL1        0.0327
      2 C         137.8404  142.4012  162.7945 C.ar    1  UNL1        0.1001
      3 N         137.7503  142.8878  161.3785 N.ar    1  UNL1       -0.2420
      4 C         138.9106  142.7020  160.4463 C.ar    1  UNL1        0.1078
      5 C         140.1612  142.0296  160.9300 C.ar    1  UNL1        0.1207
      6 C         140.2513  141.5430  162.3460 C.ar    1  UNL1        0.0583
      7 C         141.3215  141.8438  159.9978 C.2     1  UNL1        0.3780
      8 N         142.5233  142.7357  159.8973 N.2     1  UNL1       -0.0308
      9 C         143.4284  142.1766  158.8398 C.2     1  UNL1        0.2320
     10 C         144.7545  142.6344  158.3090 C.2     1  UNL1        0.0537
     11 C         145.4381  141.8548  157.2251 C.2     1  UNL1        0.0714
     12 C         144.7956  140.6173  156.6721 C.2     1  UNL1       -0.0133
     13 C         143.4695  140.1594  157.2029 C.3     1  UNL1        0.1037
     14 C         142.7859  140.9391  158.2867 C.2     1  UNL1        0.2178
     15 N         141.4838  140.7334  159.0025 N.2     1  UNL1       -0.0346
     16 C         146.7643  142.3126  156.6943 C.3     1  UNL1        0.4184
     17 F         148.0904  142.7704  156.1635 F       1  UNL1       -0.1659
     18 F         146.9715  143.1416  157.9270 F       1  UNL1       -0.1659
     19 F         146.5571  141.4836  155.4615 F       1  UNL1       -0.1659
     20 N         141.5019  140.8706  162.8299 N.pl3   1  UNL1       -0.3071
     21 C         141.6152  139.3756  162.7843 C.3     1  UNL1        0.0921
     22 C         142.8657  138.7031  163.2681 C.3     1  UNL1        0.0369
     23 C         144.0029  139.5257  163.7975 C.3     1  UNL1        0.0542
     24 N         145.2534  138.8533  164.2813 N.3     1  UNL1       -0.3221
     25 C         143.8896  141.0207  163.8430 C.3     1  UNL1        0.0369
     26 C         142.6390  141.6932  163.3592 C.3     1  UNL1        0.0921
     27 H         145.1578  137.8430  164.1781 H       1  UNL1        0.1188
     28 H         145.4041  139.0820  165.2638 H       1  UNL1        0.1188
     29 C         137.7683  138.2991  166.9508 C.3     1  UNL1        0.0310
     30 C         138.5198  139.5273  166.5305 C.ar    1  UNL1       -0.0222
     31 C         139.3616  140.2689  167.5263 C.ar    1  UNL1       -0.0085
     32 C         140.1131  141.4972  167.1061 C.ar    1  UNL1       -0.0222
     33 C         140.9547  142.2388  168.1018 C.3     1  UNL1        0.0310
     34 C         140.0229  141.9838  165.6900 C.ar    1  UNL1       -0.0042
     35 C         139.1812  141.2422  164.6943 C.ar    1  UNL1        0.0021
     36 C         138.4297  140.0139  165.1146 C.ar    1  UNL1       -0.0042
@<TRIPOS>BOND
     1    29    30    1
     2    30    31   ar
     3    31    32   ar
     4    32    33    1
     5    32    34   ar
     6    34    35   ar
     7    35     1    1
     8     1     2   ar
     9     2     3   ar
    10     3     4   ar
    11     4     5   ar
    12     5     7    1
    13     7     8    2
    14     8     9    1
    15     9    10    2
    16    10    11    1
    17    11    16    1
    18    16    17    1
    19    16    18    1
    20    16    19    1
    21    11    12    2
    22    12    13    1
    23    13    14    1
    24    14    15    2
    25     5     6   ar
    26     6    20    1
    27    20    21    1
    28    21    22    1
    29    22    23    1
    30    23    24    1
    31    23    25    1
    32    25    26    1
    33    35    36   ar
    34    36    30   ar
    35     6     1   ar
    36    26    20    1
    37    15     7    1
    38    14     9    1
    39    24    27    1
    40    24    28    1
@<TRIPOS>MOLECULE
*****
 36 40 0 0 0
SMALL
GASTEIGER

@<TRIPOS>ATOM
      1 C         139.0936  141.7277  163.2753 C.ar    1  UNL1        0.0327
      2 C         137.8420  142.3983  162.7916 C.ar    1  UNL1        0.1001
      3 N         137.7503  142.8828  161.3750 N.ar    1  UNL1       -0.2420
      4 C         138.9101  142.6969  160.4421 C.ar    1  UNL1        0.1078
      5 C         140.1616  142.0264  160.9258 C.ar    1  UNL1        0.1207
      6 C         140.2534  141.5418  162.3424 C.ar    1  UNL1        0.0583
      7 C         141.3214  141.8404  159.9929 C.2     1  UNL1        0.3780
      8 N         142.5257  142.7293  159.8953 N.2     1  UNL1       -0.0308
      9 C         143.4291  142.1712  158.8358 C.2     1  UNL1        0.2320
     10 C         144.7565  142.6271  158.3065 C.2     1  UNL1        0.0537
     11 C         145.4379  141.8492  157.2200 C.2     1  UNL1        0.0714
     12 C         144.7919  140.6153  156.6629 C.2     1  UNL1       -0.0133
     13 C         143.4646  140.1595  157.1922 C.3     1  UNL1        0.1037
     14 C         142.7832  140.9374  158.2787 C.2     1  UNL1        0.2178
     15 N         141.4805  140.7330  158.9938 N.2     1  UNL1       -0.0346
     16 C         146.7653  142.3050  156.6907 C.3     1  UNL1        0.4184
     17 F         148.0927  142.7608  156.1613 F       1  UNL1       -0.1659
     18 F         146.5615  141.4705  155.4610 F       1  UNL1       -0.1659
     19 F         146.9692  143.1395  157.9203 F       1  UNL1       -0.1659
     20 N         141.5050  140.8712  162.8261 N.pl3   1  UNL1       -0.3071
     21 C         142.6408  141.6955  163.3556 C.3     1  UNL1        0.0921
     22 C         143.8924  141.0251  163.8393 C.3     1  UNL1        0.0369
     23 C         144.0081  139.5302  163.7935 C.3     1  UNL1        0.0542
     24 N         145.2597  138.8597  164.2772 N.3     1  UNL1       -0.3221
     25 C         142.8723  138.7059  163.2641 C.3     1  UNL1        0.0369
     26 C         141.6207  139.3764  162.7803 C.3     1  UNL1        0.0921
     27 H         145.9210  139.5661  164.5998 H       1  UNL1        0.1188
     28 H         145.6767  138.3269  163.5140 H       1  UNL1        0.1188
     29 C         140.9638  142.2440  168.0956 C.3     1  UNL1        0.0310
     30 C         140.1205  141.5013  167.1020 C.ar    1  UNL1       -0.0222
     31 C         139.3691  140.2739  167.5251 C.ar    1  UNL1       -0.0085
     32 C         138.5258  139.5312  166.5315 C.ar    1  UNL1       -0.0222
     33 C         137.7743  138.3039  166.9545 C.3     1  UNL1        0.0310
     34 C         138.4339  140.0158  165.1149 C.ar    1  UNL1       -0.0042
     35 C         139.1854  141.2431  164.6919 C.ar    1  UNL1        0.0021
     36 C         140.0287  141.9859  165.6855 C.ar    1  UNL1       -0.0042
@<TRIPOS>BOND
     1    29    30    1
     2    30    31   ar
     3    31    32   ar
     4    32    33    1
     5    32    34   ar
     6    34    35   ar
     7    35     1    1
     8     1     2   ar
     9     2     3   ar
    10     3     4   ar
    11     4     5   ar
    12     5     7    1
    13     7     8    2
    14     8     9    1
    15     9    10    2
    16    10    11    1
    17    11    16    1
    18    16    17    1
    19    16    18    1
    20    16    19    1
    21    11    12    2
    22    12    13    1
    23    13    14    1
    24    14    15    2
    25     5     6   ar
    26     6    20    1
    27    20    21    1
    28    21    22    1
    29    22    23    1
    30    23    24    1
    31    23    25    1
    32    25    26    1
    33    35    36   ar
    34    36    30   ar
    35     6     1   ar
    36    26    20    1
    37    15     7    1
    38    14     9    1
    39    24    27    1
    40    24    28    1
@<TRIPOS>MOLECULE
*****
 36 40 0 0 0
SMALL
GASTEIGER

@<TRIPOS>ATOM
      1 C         141.2627  139.9034  160.5257 C.ar    1  UNL1        0.0327
      2 C         141.4817  138.4241  160.4090 C.ar    1  UNL1        0.1001
      3 N         141.7011  137.5988  161.6421 N.ar    1  UNL1       -0.2420
      4 C         141.7016  138.2529  162.9920 C.ar    1  UNL1        0.1078
      5 C         141.4826  139.7322  163.1088 C.ar    1  UNL1        0.1207
      6 C         141.2632  140.5574  161.8756 C.ar    1  UNL1        0.0583
      7 C         141.4831  140.3862  164.4587 C.2     1  UNL1        0.3780
      8 N         140.2717  140.7101  165.2819 N.2     1  UNL1       -0.0308
      9 C         140.7349  141.3553  166.5544 C.2     1  UNL1        0.2320
     10 C         139.9865  141.8843  167.7418 C.2     1  UNL1        0.0537
     11 C         140.7357  142.4881  168.8924 C.2     1  UNL1        0.0714
     12 C         142.2334  142.5629  168.8556 C.2     1  UNL1       -0.0133
     13 C         142.9818  142.0339  167.6683 C.3     1  UNL1        0.1037
     14 C         142.2326  141.4301  166.5176 C.2     1  UNL1        0.2178
     15 N         142.6949  140.8312  165.2224 N.2     1  UNL1       -0.0346
     16 C         139.9873  143.0171  170.0799 C.3     1  UNL1        0.4184
     17 F         139.2389  143.5461  171.2673 F       1  UNL1       -0.1659
     18 F         139.3098  141.6890  170.2445 F       1  UNL1       -0.1659
     19 F         140.6647  144.3452  169.9152 F       1  UNL1       -0.1659
     20 N         141.0442  142.0368  161.9923 N.pl3   1  UNL1       -0.3071
     21 C         142.2161  142.9727  161.9669 C.3     1  UNL1        0.0921
     22 C         141.9972  144.4521  162.0836 C.3     1  UNL1        0.0369
     23 C         140.6062  144.9955  162.2257 C.3     1  UNL1        0.0542
     24 N         140.3873  146.4748  162.3424 N.3     1  UNL1       -0.3221
     25 C         139.4343  144.0596  162.2511 C.3     1  UNL1        0.0369
     26 C         139.6533  142.5802  162.1344 C.3     1  UNL1        0.0921
     27 H         141.2863  146.9554  162.3068 H       1  UNL1        0.1188
     28 H         139.9261  146.6814  163.2284 H       1  UNL1        0.1188
     29 C         143.1667  142.7589  156.6243 C.3     1  UNL1        0.0310
     30 C         141.9953  142.1565  157.3418 C.ar    1  UNL1       -0.0222
     31 C         140.6044  142.3794  156.8262 C.ar    1  UNL1       -0.0085
     32 C         139.4330  141.7770  157.5437 C.ar    1  UNL1       -0.0222
     33 C         138.0422  141.9999  157.0281 C.3     1  UNL1        0.0310
     34 C         139.6524  140.9517  158.7769 C.ar    1  UNL1       -0.0042
     35 C         141.0432  140.7288  159.2925 C.ar    1  UNL1        0.0021
     36 C         142.2147  141.3311  158.5749 C.ar    1  UNL1       -0.0042
@<TRIPOS>BOND
     1    29    30    1
     2    30    31   ar
     3    31    32   ar
     4    32    33    1
     5    32    34   ar
     6    34    35   ar
     7    35     1    1
     8     1     2   ar
     9     2     3   ar
    10     3     4   ar
    11     4     5   ar
    12     5     7    1
    13     7     8    2
    14     8     9    1
    15     9    10    2
    16    10    11    1
    17    11    16    1
    18    16    17    1
    19    16    18    1
    20    16    19    1
    21    11    12    2
    22    12    13    1
    23    13    14    1
    24    14    15    2
    25     5     6   ar
    26     6    20    1
    27    20    21    1
    28    21    22    1
    29    22    23    1
    30    23    24    1
    31    23    25    1
    32    25    26    1
    33    35    36   ar
    34    36    30   ar
    35     6     1   ar
    36    26    20    1
    37    15     7    1
    38    14     9    1
    39    24    27    1
    40    24    28    1
@<TRIPOS>MOLECULE
*****
 36 40 0 0 0
SMALL
GASTEIGER

@<TRIPOS>ATOM
      1 C         141.4923  139.9916  160.5397 C.ar    1  UNL1        0.0327
      2 C         141.7740  138.5237  160.4150 C.ar    1  UNL1        0.1001
      3 N         142.0191  137.7000  161.6444 N.ar    1  UNL1       -0.2420
      4 C         141.9825  138.3443  162.9985 C.ar    1  UNL1        0.1078
      5 C         141.7008  139.8123  163.1232 C.ar    1  UNL1        0.1207
      6 C         141.4556  140.6360  161.8938 C.ar    1  UNL1        0.0583
      7 C         141.6641  140.4567  164.4772 C.2     1  UNL1        0.3780
      8 N         140.4318  140.7546  165.2789 N.2     1  UNL1       -0.0308
      9 C         140.8594  141.3983  166.5645 C.2     1  UNL1        0.2320
     10 C         140.0794  141.9063  167.7406 C.2     1  UNL1        0.0537
     11 C         140.7960  142.5143  168.9097 C.2     1  UNL1        0.0714
     12 C         142.2926  142.6142  168.9027 C.2     1  UNL1       -0.0133
     13 C         143.0727  142.1061  167.7265 C.3     1  UNL1        0.1037
     14 C         142.3561  141.4982  166.5574 C.2     1  UNL1        0.2178
     15 N         142.8534  140.9162  165.2674 N.2     1  UNL1       -0.0346
     16 C         140.0159  143.0223  170.0860 C.3     1  UNL1        0.4184
     17 F         139.2359  143.5303  171.2621 F       1  UNL1       -0.1659
     18 F         139.3517  141.6845  170.2233 F       1  UNL1       -0.1659
     19 F         140.6801  144.3602  169.9486 F       1  UNL1       -0.1659
     20 N         141.1739  142.1041  162.0184 N.pl3   1  UNL1       -0.3071
     21 C         139.7618  142.5864  162.1715 C.3     1  UNL1        0.0921
     22 C         139.4800  144.0543  162.2961 C.3     1  UNL1        0.0369
     23 C         140.6103  145.0401  162.2676 C.3     1  UNL1        0.0542
     24 N         140.3285  146.5081  162.3922 N.3     1  UNL1       -0.3221
     25 C         142.0224  144.5578  162.1146 C.3     1  UNL1        0.0369
     26 C         142.3042  143.0897  161.9899 C.3     1  UNL1        0.0921
     27 H         139.3236  146.6545  162.4877 H       1  UNL1        0.1188
     28 H         140.6648  146.9908  161.5590 H       1  UNL1        0.1188
     29 C         138.2127  141.9657  157.0258 C.3     1  UNL1        0.0310
     30 C         139.6074  141.8024  157.5533 C.ar    1  UNL1       -0.0222
     31 C         140.7569  142.4628  156.8514 C.ar    1  UNL1       -0.0085
     32 C         142.1515  142.2995  157.3790 C.ar    1  UNL1       -0.0222
     33 C         143.3010  142.9598  156.6772 C.3     1  UNL1        0.0310
     34 C         142.3966  141.4757  158.6084 C.ar    1  UNL1       -0.0042
     35 C         141.2472  140.8154  159.3103 C.ar    1  UNL1        0.0021
     36 C         139.8525  140.9787  158.7827 C.ar    1  UNL1       -0.0042
@<TRIPOS>BOND
     1    29    30    1
     2    30    31   ar
     3    31    32   ar
     4    32    33    1
     5    32    34   ar
     6    34    35   ar
     7    35     1    1
     8     1     2   ar
     9     2     3   ar
    10     3     4   ar
    11     4     5   ar
    12     5     7    1
    13     7     8    2
    14     8     9    1
    15     9    10    2
    16    10    11    1
    17    11    16    1
    18    16    17    1
    19    16    18    1
    20    16    19    1
    21    11    12    2
    22    12    13    1
    23    13    14    1
    24    14    15    2
    25     5     6   ar
    26     6    20    1
    27    20    21    1
    28    21    22    1
    29    22    23    1
    30    23    24    1
    31    23    25    1
    32    25    26    1
    33    35    36   ar
    34    36    30   ar
    35     6     1   ar
    36    26    20    1
    37    15     7    1
    38    14     9    1
    39    24    27    1
    40    24    28    1
@<TRIPOS>MOLECULE
*****
 36 40 0 0 0
SMALL
GASTEIGER

@<TRIPOS>ATOM
      1 C         140.8625  144.0222  160.2280 C.ar    1  UNL1        0.0327
      2 C         140.3292  145.4242  160.2381 C.ar    1  UNL1        0.1001
      3 N         139.6060  145.9427  161.4455 N.ar    1  UNL1       -0.2420
      4 C         139.4160  145.0594  162.6429 C.ar    1  UNL1        0.1078
      5 C         139.9492  143.6574  162.6327 C.ar    1  UNL1        0.1207
      6 C         140.6725  143.1388  161.4253 C.ar    1  UNL1        0.0583
      7 C         139.7593  142.7740  163.8300 C.2     1  UNL1        0.3780
      8 N         140.3551  142.9912  165.1894 N.2     1  UNL1       -0.0308
      9 C         139.9042  141.8698  166.0777 C.2     1  UNL1        0.2320
     10 C         140.1769  141.5599  167.5198 C.2     1  UNL1        0.0537
     11 C         139.5751  140.3398  168.1515 C.2     1  UNL1        0.0714
     12 C         138.7006  139.4295  167.3411 C.2     1  UNL1       -0.0133
     13 C         138.4278  139.7394  165.8991 C.3     1  UNL1        0.1037
     14 C         139.0296  140.9595  165.2674 C.2     1  UNL1        0.2178
     15 N         138.9401  141.5184  163.8783 N.2     1  UNL1       -0.0346
     16 C         139.8479  140.0298  169.5936 C.3     1  UNL1        0.4184
     17 F         140.1206  139.7199  171.0356 F       1  UNL1       -0.1659
     18 F         138.4996  140.5720  169.9651 F       1  UNL1       -0.1659
     19 F         141.1962  139.4876  169.2221 F       1  UNL1       -0.1659
     20 N         141.2058  141.7368  161.4151 N.pl3   1  UNL1       -0.3071
     21 C         142.5218  141.4303  162.0664 C.3     1  UNL1        0.0921
     22 C         143.0551  140.0284  162.0562 C.3     1  UNL1        0.0369
     23 C         142.2724  138.9329  161.3948 C.3     1  UNL1        0.0542
     24 N         142.8058  137.5310  161.3847 N.3     1  UNL1       -0.3221
     25 C         140.9564  139.2395  160.7435 C.3     1  UNL1        0.0369
     26 C         140.4231  140.6415  160.7537 C.3     1  UNL1        0.0921
     27 H         143.7035  137.5052  161.8682 H       1  UNL1        0.1188
     28 H         142.9298  137.2214  160.4207 H       1  UNL1        0.1188
     29 C         140.7845  142.3544  155.3074 C.3     1  UNL1        0.0310
     30 C         141.5467  142.6697  156.5602 C.ar    1  UNL1       -0.0222
     31 C         143.0323  142.4663  156.6056 C.ar    1  UNL1       -0.0085
     32 C         143.7945  142.7816  157.8584 C.ar    1  UNL1       -0.0222
     33 C         145.2799  142.5783  157.9038 C.3     1  UNL1        0.0310
     34 C         143.0712  143.3002  159.0659 C.ar    1  UNL1       -0.0042
     35 C         141.5858  143.5036  159.0205 C.ar    1  UNL1        0.0021
     36 C         140.8235  143.1883  157.7677 C.ar    1  UNL1       -0.0042
@<TRIPOS>BOND
     1    29    30    1
     2    30    31   ar
     3    31    32   ar
     4    32    33    1
     5    32    34   ar
     6    34    35   ar
     7    35     1    1
     8     1     2   ar
     9     2     3   ar
    10     3     4   ar
    11     4     5   ar
    12     5     7    1
    13     7     8    2
    14     8     9    1
    15     9    10    2
    16    10    11    1
    17    11    16    1
    18    16    17    1
    19    16    18    1
    20    16    19    1
    21    11    12    2
    22    12    13    1
    23    13    14    1
    24    14    15    2
    25     5     6   ar
    26     6    20    1
    27    20    21    1
    28    21    22    1
    29    22    23    1
    30    23    24    1
    31    23    25    1
    32    25    26    1
    33    35    36   ar
    34    36    30   ar
    35     6     1   ar
    36    26    20    1
    37    15     7    1
    38    14     9    1
    39    24    27    1
    40    24    28    1
@<TRIPOS>MOLECULE
*****
 36 40 0 0 0
SMALL
GASTEIGER

@<TRIPOS>ATOM
      1 C         141.9763  140.0409  167.1946 C.ar    1  UNL1        0.0327
      2 C         143.0029  139.0392  167.6335 C.ar    1  UNL1        0.1001
      3 N         143.9024  138.3945  166.6210 N.ar    1  UNL1       -0.2420
      4 C         143.7752  138.7514  165.1696 C.ar    1  UNL1        0.1078
      5 C         142.7486  139.7530  164.7308 C.ar    1  UNL1        0.1207
      6 C         141.8491  140.3978  165.7432 C.ar    1  UNL1        0.0583
      7 C         142.6214  140.1099  163.2794 C.2     1  UNL1        0.3780
      8 N         143.5022  141.0612  162.5249 N.2     1  UNL1       -0.0308
      9 C         143.0163  141.1174  161.1069 C.2     1  UNL1        0.2320
     10 C         143.4967  141.8848  159.9110 C.2     1  UNL1        0.0537
     11 C         142.7960  141.7355  158.5931 C.2     1  UNL1        0.0714
     12 C         141.6149  140.8189  158.4712 C.2     1  UNL1       -0.0133
     13 C         141.1345  140.0516  159.6671 C.3     1  UNL1        0.1037
     14 C         141.8352  140.2008  160.9850 C.2     1  UNL1        0.2178
     15 N         141.5911  139.5781  162.3277 N.2     1  UNL1       -0.0346
     16 C         143.2764  142.5029  157.3971 C.3     1  UNL1        0.4184
     17 F         143.7568  143.2702  156.2011 F       1  UNL1       -0.1659
     18 F         142.9038  141.3526  156.5094 F       1  UNL1       -0.1659
     19 F         143.6490  143.6532  158.2847 F       1  UNL1       -0.1659
     20 N         140.8224  141.3995  165.3044 N.pl3   1  UNL1       -0.3071
     21 C         139.4104  140.9629  165.0479 C.3     1  UNL1        0.0921
     22 C         138.3837  141.9645  164.6090 C.3     1  UNL1        0.0369
     23 C         138.7689  143.4028  164.4267 C.3     1  UNL1        0.0542
     24 N         137.7422  144.4044  163.9879 N.3     1  UNL1       -0.3221
     25 C         140.1809  143.8393  164.6832 C.3     1  UNL1        0.0369
     26 C         141.2076  142.8376  165.1221 C.3     1  UNL1        0.0921
     27 H         136.8443  143.9375  163.8609 H       1  UNL1        0.1188
     28 H         138.0338  144.8261  163.1061 H       1  UNL1        0.1188
     29 C         137.8981  139.7803  170.4041 C.3     1  UNL1        0.0310
     30 C         139.0376  140.5554  169.8119 C.ar    1  UNL1       -0.0222
     31 C         139.2776  141.9752  170.2321 C.ar    1  UNL1       -0.0085
     32 C         140.4171  142.7503  169.6398 C.ar    1  UNL1       -0.0222
     33 C         140.6571  144.1701  170.0600 C.3     1  UNL1        0.0310
     34 C         141.3167  142.1055  168.6273 C.ar    1  UNL1       -0.0042
     35 C         141.0767  140.6857  168.2071 C.ar    1  UNL1        0.0021
     36 C         139.9372  139.9106  168.7994 C.ar    1  UNL1       -0.0042
@<TRIPOS>BOND
     1    29    30    1
     2    30    31   ar
     3    31    32   ar
     4    32    33    1
     5    32    34   ar
     6    34    35   ar
     7    35     1    1
     8     1     2   ar
     9     2     3   ar
    10     3     4   ar
    11     4     5   ar
    12     5     7    1
    13     7     8    2
    14     8     9    1
    15     9    10    2
    16    10    11    1
    17    11    16    1
    18    16    17    1
    19    16    18    1
    20    16    19    1
    21    11    12    2
    22    12    13    1
    23    13    14    1
    24    14    15    2
    25     5     6   ar
    26     6    20    1
    27    20    21    1
    28    21    22    1
    29    22    23    1
    30    23    24    1
    31    23    25    1
    32    25    26    1
    33    35    36   ar
    34    36    30   ar
    35     6     1   ar
    36    26    20    1
    37    15     7    1
    38    14     9    1
    39    24    27    1
    40    24    28    1
@<TRIPOS>MOLECULE
*****
 36 40 0 0 0
SMALL
GASTEIGER

@<TRIPOS>ATOM
      1 C         140.0120  143.5980  163.2406 C.ar    1  UNL1        0.0327
      2 C         139.1803  144.8419  163.1360 C.ar    1  UNL1        0.1001
      3 N         139.2664  145.7006  161.9093 N.ar    1  UNL1       -0.2420
      4 C         140.1843  145.3156  160.7871 C.ar    1  UNL1        0.1078
      5 C         141.0161  144.0717  160.8917 C.ar    1  UNL1        0.1207
      6 C         140.9299  143.2129  162.1185 C.ar    1  UNL1        0.0583
      7 C         141.9340  143.6867  159.7696 C.2     1  UNL1        0.3780
      8 N         143.3904  143.3514  159.8974 N.2     1  UNL1       -0.0308
      9 C         143.9132  143.0268  158.5294 C.2     1  UNL1        0.2320
     10 C         145.2748  142.6259  158.0443 C.2     1  UNL1        0.0537
     11 C         145.5030  142.3598  156.5859 C.2     1  UNL1        0.0714
     12 C         144.3696  142.4946  155.6126 C.2     1  UNL1       -0.0133
     13 C         143.0080  142.8954  156.0977 C.3     1  UNL1        0.1037
     14 C         142.7798  143.1615  157.5561 C.2     1  UNL1        0.2178
     15 N         141.5566  143.5693  158.3226 N.2     1  UNL1       -0.0346
     16 C         146.8646  141.9590  156.1007 C.3     1  UNL1        0.4184
     17 F         148.2262  141.5582  155.6156 F       1  UNL1       -0.1659
     18 F         147.4900  142.6931  157.2495 F       1  UNL1       -0.1659
     19 F         146.2392  141.2249  154.9518 F       1  UNL1       -0.1659
     20 N         141.7617  141.9690  162.2232 N.pl3   1  UNL1       -0.3071
     21 C         143.0547  141.9932  162.9830 C.3     1  UNL1        0.0921
     22 C         143.8865  140.7493  163.0877 C.3     1  UNL1        0.0369
     23 C         143.4252  139.4812  162.4326 C.3     1  UNL1        0.0542
     24 N         144.2569  138.2374  162.5373 N.3     1  UNL1       -0.3221
     25 C         142.1321  139.4571  161.6727 C.3     1  UNL1        0.0369
     26 C         141.3004  140.7010  161.5680 C.3     1  UNL1        0.0921
     27 H         145.0948  138.4338  163.0848 H       1  UNL1        0.1188
     28 H         144.5258  137.9286  161.6031 H       1  UNL1        0.1188
     29 C         138.1482  139.4027  165.6749 C.3     1  UNL1        0.0310
     30 C         138.9940  140.6415  165.6846 C.ar    1  UNL1       -0.0222
     31 C         139.7536  141.0214  166.9210 C.ar    1  UNL1       -0.0085
     32 C         140.5994  142.2602  166.9306 C.ar    1  UNL1       -0.0222
     33 C         141.3590  142.6401  168.1670 C.3     1  UNL1        0.0310
     34 C         140.6855  143.1191  165.7038 C.ar    1  UNL1       -0.0042
     35 C         139.9259  142.7391  164.4675 C.ar    1  UNL1        0.0021
     36 C         139.0801  141.5003  164.4578 C.ar    1  UNL1       -0.0042
@<TRIPOS>BOND
     1    29    30    1
     2    30    31   ar
     3    31    32   ar
     4    32    33    1
     5    32    34   ar
     6    34    35   ar
     7    35     1    1
     8     1     2   ar
     9     2     3   ar
    10     3     4   ar
    11     4     5   ar
    12     5     7    1
    13     7     8    2
    14     8     9    1
    15     9    10    2
    16    10    11    1
    17    11    16    1
    18    16    17    1
    19    16    18    1
    20    16    19    1
    21    11    12    2
    22    12    13    1
    23    13    14    1
    24    14    15    2
    25     5     6   ar
    26     6    20    1
    27    20    21    1
    28    21    22    1
    29    22    23    1
    30    23    24    1
    31    23    25    1
    32    25    26    1
    33    35    36   ar
    34    36    30   ar
    35     6     1   ar
    36    26    20    1
    37    15     7    1
    38    14     9    1
    39    24    27    1
    40    24    28    1
@<TRIPOS>MOLECULE
*****
 36 40 0 0 0
SMALL
GASTEIGER

@<TRIPOS>ATOM
      1 C         140.3453  143.7748  161.0200 C.ar    1  UNL1        0.0327
      2 C         139.9969  145.2308  161.1130 C.ar    1  UNL1        0.1001
      3 N         139.8443  145.8812  162.4560 N.ar    1  UNL1       -0.2420
      4 C         140.0402  145.0756  163.7060 C.ar    1  UNL1        0.1078
      5 C         140.3885  143.6196  163.6131 C.ar    1  UNL1        0.1207
      6 C         140.5411  142.9692  162.2701 C.ar    1  UNL1        0.0583
      7 C         140.5843  142.8139  164.8631 C.2     1  UNL1        0.3780
      8 N         141.8500  142.7207  165.6628 N.2     1  UNL1       -0.0308
      9 C         141.5968  141.8093  166.8269 C.2     1  UNL1        0.2320
     10 C         142.4774  141.3467  167.9495 C.2     1  UNL1        0.0537
     11 C         141.9359  140.4139  168.9920 C.2     1  UNL1        0.0714
     12 C         140.5137  139.9438  168.9117 C.2     1  UNL1       -0.0133
     13 C         139.6331  140.4064  167.7891 C.3     1  UNL1        0.1037
     14 C         140.1746  141.3391  166.7466 C.2     1  UNL1        0.2178
     15 N         139.5489  141.9600  165.5330 N.2     1  UNL1       -0.0346
     16 C         142.8166  139.9513  170.1147 C.3     1  UNL1        0.4184
     17 F         143.6971  139.4886  171.2374 F       1  UNL1       -0.1659
     18 F         141.9803  138.7147  170.2611 F       1  UNL1       -0.1659
     19 F         143.6529  141.1878  169.9683 F       1  UNL1       -0.1659
     20 N         140.8895  141.5131  162.1770 N.pl3   1  UNL1       -0.3071
     21 C         139.8002  140.4833  162.1238 C.3     1  UNL1        0.0921
     22 C         140.1485  139.0273  162.0308 C.3     1  UNL1        0.0369
     23 C         141.5862  138.6011  161.9910 C.3     1  UNL1        0.0542
     24 N         141.9345  137.1451  161.8980 N.3     1  UNL1       -0.3221
     25 C         142.6755  139.6310  162.0443 C.3     1  UNL1        0.0369
     26 C         142.3271  141.0870  162.1373 C.3     1  UNL1        0.0921
     27 H         141.0782  136.5916  161.8719 H       1  UNL1        0.1188
     28 H         142.4890  136.8756  162.7106 H       1  UNL1        0.1188
     29 C         138.2781  141.2111  157.0008 C.3     1  UNL1        0.0310
     30 C         139.4643  141.8425  157.6674 C.ar    1  UNL1       -0.0222
     31 C         140.8030  141.8236  156.9909 C.ar    1  UNL1       -0.0085
     32 C         141.9891  142.4550  157.6575 C.ar    1  UNL1       -0.0222
     33 C         143.3278  142.4360  156.9811 C.3     1  UNL1        0.0310
     34 C         141.8365  143.1054  159.0005 C.ar    1  UNL1       -0.0042
     35 C         140.4979  143.1244  159.6769 C.ar    1  UNL1        0.0021
     36 C         139.3117  142.4930  159.0104 C.ar    1  UNL1       -0.0042
@<TRIPOS>BOND
     1    29    30    1
     2    30    31   ar
     3    31    32   ar
     4    32    33    1
     5    32    34   ar
     6    34    35   ar
     7    35     1    1
     8     1     2   ar
     9     2     3   ar
    10     3     4   ar
    11     4     5   ar
    12     5     7    1
    13     7     8    2
    14     8     9    1
    15     9    10    2
    16    10    11    1
    17    11    16    1
    18    16    17    1
    19    16    18    1
    20    16    19    1
    21    11    12    2
    22    12    13    1
    23    13    14    1
    24    14    15    2
    25     5     6   ar
    26     6    20    1
    27    20    21    1
    28    21    22    1
    29    22    23    1
    30    23    24    1
    31    23    25    1
    32    25    26    1
    33    35    36   ar
    34    36    30   ar
    35     6     1   ar
    36    26    20    1
    37    15     7    1
    38    14     9    1
    39    24    27    1
    40    24    28    1
@<TRIPOS>MOLECULE
*****
 36 40 0 0 0
SMALL
GASTEIGER

@<TRIPOS>ATOM
      1 C         141.9641  140.0246  167.1872 C.ar    1  UNL1        0.0327
      2 C         143.0002  139.0317  167.6238 C.ar    1  UNL1        0.1001
      3 N         143.8901  138.3803  166.6071 N.ar    1  UNL1       -0.2420
      4 C         143.7439  138.7217  165.1539 C.ar    1  UNL1        0.1078
      5 C         142.7079  139.7146  164.7173 C.ar    1  UNL1        0.1207
      6 C         141.8180  140.3660  165.7339 C.ar    1  UNL1        0.0583
      7 C         142.5617  140.0561  163.2640 C.2     1  UNL1        0.3780
      8 N         141.5065  139.5303  162.3365 N.2     1  UNL1       -0.0308
      9 C         141.7377  140.1326  160.9823 C.2     1  UNL1        0.2320
     10 C         141.0121  139.9793  159.6785 C.2     1  UNL1        0.0537
     11 C         141.4845  140.7240  158.4652 C.2     1  UNL1        0.0714
     12 C         142.6826  141.6220  158.5557 C.2     1  UNL1       -0.0133
     13 C         143.4083  141.7753  159.8595 C.3     1  UNL1        0.1037
     14 C         142.9358  141.0305  161.0728 C.2     1  UNL1        0.2178
     15 N         143.4450  140.9833  162.4829 N.2     1  UNL1       -0.0346
     16 C         140.7589  140.5707  157.1614 C.3     1  UNL1        0.4184
     17 F         140.0333  140.4175  155.8575 F       1  UNL1       -0.1659
     18 F         141.0603  142.0012  156.8255 F       1  UNL1       -0.1659
     19 F         140.4575  139.1402  157.4972 F       1  UNL1       -0.1659
     20 N         140.7818  141.3590  165.2974 N.pl3   1  UNL1       -0.3071
     21 C         139.3709  140.9122  165.0529 C.3     1  UNL1        0.0921
     22 C         138.3348  141.9051  164.6164 C.3     1  UNL1        0.0369
     23 C         138.7095  143.3448  164.4242 C.3     1  UNL1        0.0542
     24 N         137.6734  144.3376  163.9876 N.3     1  UNL1       -0.3221
     25 C         140.1204  143.7915  164.6686 C.3     1  UNL1        0.0369
     26 C         141.1566  142.7986  165.1052 C.3     1  UNL1        0.0921
     27 H         136.7776  143.8644  163.8694 H       1  UNL1        0.1188
     28 H         137.9561  144.7568  163.1018 H       1  UNL1        0.1188
     29 C         140.6965  144.1596  170.0672 C.3     1  UNL1        0.0310
     30 C         140.4404  142.7436  169.6439 C.ar    1  UNL1       -0.0222
     31 C         139.2943  141.9790  170.2373 C.ar    1  UNL1       -0.0085
     32 C         139.0382  140.5630  169.8139 C.ar    1  UNL1       -0.0222
     33 C         137.8922  139.7984  170.4072 C.3     1  UNL1        0.0310
     34 C         139.9282  139.9115  168.7972 C.ar    1  UNL1       -0.0042
     35 C         141.0742  140.6760  168.2039 C.ar    1  UNL1        0.0021
     36 C         141.3303  142.0921  168.6272 C.ar    1  UNL1       -0.0042
@<TRIPOS>BOND
     1    29    30    1
     2    30    31   ar
     3    31    32   ar
     4    32    33    1
     5    32    34   ar
     6    34    35   ar
     7    35     1    1
     8     1     2   ar
     9     2     3   ar
    10     3     4   ar
    11     4     5   ar
    12     5     7    1
    13     7     8    2
    14     8     9    1
    15     9    10    2
    16    10    11    1
    17    11    16    1
    18    16    17    1
    19    16    18    1
    20    16    19    1
    21    11    12    2
    22    12    13    1
    23    13    14    1
    24    14    15    2
    25     5     6   ar
    26     6    20    1
    27    20    21    1
    28    21    22    1
    29    22    23    1
    30    23    24    1
    31    23    25    1
    32    25    26    1
    33    35    36   ar
    34    36    30   ar
    35     6     1   ar
    36    26    20    1
    37    15     7    1
    38    14     9    1
    39    24    27    1
    40    24    28    1
