@<TRIPOS>MOLECULE
*****
 25 28 0 0 0
SMALL
GASTEIGER

@<TRIPOS>ATOM
      1 O         139.6336  143.0279  164.9161 O.2     1  UNL1       -0.2520
      2 C         139.0472  142.7298  163.5680 C.2     1  UNL1        0.3111
      3 N         138.7807  143.7294  162.4819 N.am    1  UNL1       -0.2606
      4 C         138.1931  142.9972  161.3119 C.3     1  UNL1        0.1169
      5 C         138.0965  141.5450  161.6752 C.3     1  UNL1        0.1213
      6 N         138.6244  141.3798  163.0695 N.am    1  UNL1       -0.2391
      7 C         138.7137  140.0908  163.8313 C.ar    1  UNL1        0.0836
      8 C         138.0827  139.9758  165.1873 C.ar    1  UNL1        0.0286
      9 C         138.1720  138.6867  165.9491 C.ar    1  UNL1        0.0591
     10 CL        137.5410  138.5716  167.3051 Cl      1  UNL1       -0.0822
     11 C         138.8924  137.5128  165.3551 C.ar    1  UNL1        0.0138
     12 C         139.5234  137.6278  163.9991 C.ar    1  UNL1        0.0318
     13 C         139.4341  138.9169  163.2373 C.ar    1  UNL1        0.1538
     14 F         140.0651  139.0319  161.8814 F       1  UNL1       -0.2029
     15 C         139.0537  145.2027  162.5531 C.3     1  UNL1        0.1123
     16 C         140.4385  145.7217  162.3024 C.3     1  UNL1        0.0944
     17 N         141.6285  144.8587  162.6010 N.3     1  UNL1       -0.2637
     18 C         142.2960  144.7085  163.9358 C.3     1  UNL1        0.0992
     19 C         143.4399  143.7513  163.7770 C.ar    1  UNL1       -0.0088
     20 C         144.4507  143.2246  164.7521 C.ar    1  UNL1       -0.0032
     21 C         145.5009  142.2565  164.2942 C.ar    1  UNL1       -0.0003
     22 C         145.5404  141.8151  162.8612 C.ar    1  UNL1       -0.0003
     23 C         144.5297  142.3418  161.8861 C.ar    1  UNL1       -0.0032
     24 C         143.4794  143.3099  162.3440 C.ar    1  UNL1       -0.0088
     25 C         142.3599  143.9943  161.6172 C.3     1  UNL1        0.0992
@<TRIPOS>BOND
     1     1     2    2
     2     2     3   am
     3     3    15    1
     4    15    16    1
     5    16    17    1
     6    17    18    1
     7    18    19    1
     8    19    20   ar
     9    20    21   ar
    10    21    22   ar
    11    22    23   ar
    12    23    24   ar
    13    24    25    1
    14     3     4    1
    15     4     5    1
    16     5     6    1
    17     6     7    1
    18     7     8   ar
    19     8     9   ar
    20     9    10    1
    21     9    11   ar
    22    11    12   ar
    23    12    13   ar
    24    13    14    1
    25     6     2   am
    26    13     7   ar
    27    25    17    1
    28    24    19   ar
@<TRIPOS>MOLECULE
*****
 25 28 0 0 0
SMALL
GASTEIGER

@<TRIPOS>ATOM
      1 O         141.4753  139.7053  165.0609 O.2     1  UNL1       -0.2520
      2 C         140.2264  139.3836  165.8270 C.2     1  UNL1        0.3111
      3 N         139.0895  138.5332  165.3429 N.am    1  UNL1       -0.2606
      4 C         138.0556  138.4799  166.4284 C.3     1  UNL1        0.1169
      5 C         138.5535  139.2974  167.5833 C.3     1  UNL1        0.1213
      6 N         139.8951  139.8559  167.2116 N.am    1  UNL1       -0.2391
      7 C         140.7545  140.7328  168.0733 C.ar    1  UNL1        0.0836
      8 C         140.2270  142.0470  168.5676 C.ar    1  UNL1        0.0286
      9 C         141.0865  142.9238  169.4293 C.ar    1  UNL1        0.0591
     10 CL        140.5589  144.2381  169.9237 Cl      1  UNL1       -0.0822
     11 C         142.4735  142.4864  169.7966 C.ar    1  UNL1        0.0138
     12 C         143.0010  141.1721  169.3023 C.ar    1  UNL1        0.0318
     13 C         142.1415  140.2953  168.4406 C.ar    1  UNL1        0.1538
     14 F         142.6691  138.9811  167.9462 F       1  UNL1       -0.2029
     15 C         139.0019  137.8551  164.0078 C.3     1  UNL1        0.1123
     16 C         138.4496  138.5950  162.8256 C.3     1  UNL1        0.0944
     17 N         138.6372  140.0791  162.7152 N.3     1  UNL1       -0.2637
     18 C         139.8248  140.7759  162.1204 C.3     1  UNL1        0.0992
     19 C         139.5916  142.2545  162.2178 C.ar    1  UNL1       -0.0088
     20 C         140.4199  143.4313  161.7947 C.ar    1  UNL1       -0.0032
     21 C         139.9164  144.8250  162.0266 C.ar    1  UNL1       -0.0003
     22 C         138.5846  145.0420  162.6817 C.ar    1  UNL1       -0.0003
     23 C         137.7563  143.8653  163.1049 C.ar    1  UNL1       -0.0032
     24 C         138.2598  142.4715  162.8729 C.ar    1  UNL1       -0.0088
     25 C         137.6699  141.1270  163.1803 C.3     1  UNL1        0.0992
@<TRIPOS>BOND
     1     1     2    2
     2     2     3   am
     3     3    15    1
     4    15    16    1
     5    16    17    1
     6    17    18    1
     7    18    19    1
     8    19    20   ar
     9    20    21   ar
    10    21    22   ar
    11    22    23   ar
    12    23    24   ar
    13    24    25    1
    14     3     4    1
    15     4     5    1
    16     5     6    1
    17     6     7    1
    18     7     8   ar
    19     8     9   ar
    20     9    10    1
    21     9    11   ar
    22    11    12   ar
    23    12    13   ar
    24    13    14    1
    25     6     2   am
    26    13     7   ar
    27    25    17    1
    28    24    19   ar
@<TRIPOS>MOLECULE
*****
 25 28 0 0 0
SMALL
GASTEIGER

@<TRIPOS>ATOM
      1 O         141.6955  140.8808  162.4318 O.2     1  UNL1       -0.2520
      2 C         142.9842  141.6465  162.4876 C.2     1  UNL1        0.3111
      3 N         144.3323  141.0803  162.8222 N.am    1  UNL1       -0.2606
      4 C         145.3324  142.1967  162.7601 C.3     1  UNL1        0.1169
      5 C         144.6021  143.4528  162.3871 C.3     1  UNL1        0.1213
      6 N         143.1509  143.1127  162.2188 N.am    1  UNL1       -0.2391
      7 C         142.0584  144.0708  161.8468 C.ar    1  UNL1        0.0836
      8 C         141.7106  144.2883  160.4040 C.ar    1  UNL1        0.0286
      9 C         140.6180  145.2464  160.0322 C.ar    1  UNL1        0.0591
     10 CL        140.2701  145.4640  158.5893 Cl      1  UNL1       -0.0822
     11 C         139.8731  145.9869  161.1031 C.ar    1  UNL1        0.0138
     12 C         140.2209  145.7693  162.5459 C.ar    1  UNL1        0.0318
     13 C         141.3135  144.8113  162.9178 C.ar    1  UNL1        0.1538
     14 F         141.6613  144.5937  164.3606 F       1  UNL1       -0.2029
     15 C         144.6285  139.6491  163.1596 C.3     1  UNL1        0.1123
     16 C         144.3241  139.1233  164.5310 C.3     1  UNL1        0.0944
     17 N         142.9010  139.0056  164.9903 N.3     1  UNL1       -0.2637
     18 C         142.2396  139.8520  166.0373 C.3     1  UNL1        0.0992
     19 C         140.8192  139.3904  166.1773 C.ar    1  UNL1       -0.0088
     20 C         139.6950  139.8543  167.0553 C.ar    1  UNL1       -0.0032
     21 C         138.3544  139.1866  166.9728 C.ar    1  UNL1       -0.0003
     22 C         138.1380  138.0549  166.0123 C.ar    1  UNL1       -0.0003
     23 C         139.2622  137.5910  165.1343 C.ar    1  UNL1       -0.0032
     24 C         140.6028  138.2587  165.2168 C.ar    1  UNL1       -0.0088
     25 C         141.8894  138.0210  164.4832 C.3     1  UNL1        0.0992
@<TRIPOS>BOND
     1     1     2    2
     2     2     3   am
     3     3    15    1
     4    15    16    1
     5    16    17    1
     6    17    18    1
     7    18    19    1
     8    19    20   ar
     9    20    21   ar
    10    21    22   ar
    11    22    23   ar
    12    23    24   ar
    13    24    25    1
    14     3     4    1
    15     4     5    1
    16     5     6    1
    17     6     7    1
    18     7     8   ar
    19     8     9   ar
    20     9    10    1
    21     9    11   ar
    22    11    12   ar
    23    12    13   ar
    24    13    14    1
    25     6     2   am
    26    13     7   ar
    27    25    17    1
    28    24    19   ar
@<TRIPOS>MOLECULE
*****
 25 28 0 0 0
SMALL
GASTEIGER

@<TRIPOS>ATOM
      1 O         139.0023  139.8317  165.9535 O.2     1  UNL1       -0.2520
      2 C         140.1564  139.0754  165.3653 C.2     1  UNL1        0.3111
      3 N         140.0775  138.0699  164.2550 N.am    1  UNL1       -0.2606
      4 C         141.4645  137.5648  163.9876 C.3     1  UNL1        0.1169
      5 C         142.4005  138.2583  164.9326 C.3     1  UNL1        0.1213
      6 N         141.5921  139.1919  165.7841 N.am    1  UNL1       -0.2391
      7 C         142.1257  140.0851  166.8645 C.ar    1  UNL1        0.0836
      8 C         142.2916  139.5584  168.2592 C.ar    1  UNL1        0.0286
      9 C         142.8252  140.4517  169.3396 C.ar    1  UNL1        0.0591
     10 CL        142.9911  139.9250  170.7343 Cl      1  UNL1       -0.0822
     11 C         143.1929  141.8716  169.0254 C.ar    1  UNL1        0.0138
     12 C         143.0270  142.3982  167.6307 C.ar    1  UNL1        0.0318
     13 C         142.4934  141.5049  166.5503 C.ar    1  UNL1        0.1538
     14 F         142.3275  142.0316  165.1556 F       1  UNL1       -0.2029
     15 C         138.8306  137.6441  163.5381 C.3     1  UNL1        0.1123
     16 C         138.2813  138.4855  162.4245 C.3     1  UNL1        0.0944
     17 N         138.5020  139.9692  162.4265 N.3     1  UNL1       -0.2637
     18 C         139.6890  140.6848  161.8531 C.3     1  UNL1        0.0992
     19 C         139.4951  142.1557  162.0745 C.ar    1  UNL1       -0.0088
     20 C         140.3397  143.3438  161.7211 C.ar    1  UNL1       -0.0032
     21 C         139.8773  144.7254  162.0780 C.ar    1  UNL1       -0.0003
     22 C         138.5704  144.9188  162.7883 C.ar    1  UNL1       -0.0003
     23 C         137.7258  143.7307  163.1417 C.ar    1  UNL1       -0.0032
     24 C         138.1882  142.3491  162.7848 C.ar    1  UNL1       -0.0088
     25 C         137.5744  140.9978  163.0024 C.3     1  UNL1        0.0992
@<TRIPOS>BOND
     1     1     2    2
     2     2     3   am
     3     3    15    1
     4    15    16    1
     5    16    17    1
     6    17    18    1
     7    18    19    1
     8    19    20   ar
     9    20    21   ar
    10    21    22   ar
    11    22    23   ar
    12    23    24   ar
    13    24    25    1
    14     3     4    1
    15     4     5    1
    16     5     6    1
    17     6     7    1
    18     7     8   ar
    19     8     9   ar
    20     9    10    1
    21     9    11   ar
    22    11    12   ar
    23    12    13   ar
    24    13    14    1
    25     6     2   am
    26    13     7   ar
    27    25    17    1
    28    24    19   ar
@<TRIPOS>MOLECULE
*****
 25 28 0 0 0
SMALL
GASTEIGER

@<TRIPOS>ATOM
      1 O         138.6883  142.2549  165.2163 O.2     1  UNL1       -0.2520
      2 C         138.8873  140.9082  164.5863 C.2     1  UNL1        0.3111
      3 N         138.3577  140.4719  163.2524 N.am    1  UNL1       -0.2606
      4 C         138.7939  139.0554  163.0213 C.3     1  UNL1        0.1169
      5 C         139.5930  138.6163  164.2124 C.3     1  UNL1        0.1213
      6 N         139.6507  139.7614  165.1796 N.am    1  UNL1       -0.2391
      7 C         140.3492  139.7599  166.5070 C.ar    1  UNL1        0.0836
      8 C         139.5722  140.0182  167.7637 C.ar    1  UNL1        0.0286
      9 C         140.2708  140.0167  169.0911 C.ar    1  UNL1        0.0591
     10 CL        139.4937  140.2751  170.3479 Cl      1  UNL1       -0.0822
     11 C         141.7464  139.7568  169.1617 C.ar    1  UNL1        0.0138
     12 C         142.5234  139.4984  167.9050 C.ar    1  UNL1        0.0318
     13 C         141.8248  139.4999  166.5776 C.ar    1  UNL1        0.1538
     14 F         142.6019  139.2416  165.3209 F       1  UNL1       -0.2029
     15 C         137.5362  141.3057  162.3143 C.3     1  UNL1        0.1123
     16 C         138.1973  142.3499  161.4643 C.3     1  UNL1        0.0944
     17 N         139.5452  142.8854  161.8469 N.3     1  UNL1       -0.2637
     18 C         140.8698  142.3300  161.4146 C.3     1  UNL1        0.0992
     19 C         141.9484  143.1717  162.0295 C.ar    1  UNL1       -0.0088
     20 C         143.4447  143.0976  161.9547 C.ar    1  UNL1       -0.0032
     21 C         144.2829  144.0992  162.6922 C.ar    1  UNL1       -0.0003
     22 C         143.6250  145.1749  163.5046 C.ar    1  UNL1       -0.0003
     23 C         142.1287  145.2490  163.5794 C.ar    1  UNL1       -0.0032
     24 C         141.2904  144.2474  162.8419 C.ar    1  UNL1       -0.0088
     25 C         139.8052  144.0705  162.7290 C.3     1  UNL1        0.0992
@<TRIPOS>BOND
     1     1     2    2
     2     2     3   am
     3     3    15    1
     4    15    16    1
     5    16    17    1
     6    17    18    1
     7    18    19    1
     8    19    20   ar
     9    20    21   ar
    10    21    22   ar
    11    22    23   ar
    12    23    24   ar
    13    24    25    1
    14     3     4    1
    15     4     5    1
    16     5     6    1
    17     6     7    1
    18     7     8   ar
    19     8     9   ar
    20     9    10    1
    21     9    11   ar
    22    11    12   ar
    23    12    13   ar
    24    13    14    1
    25     6     2   am
    26    13     7   ar
    27    25    17    1
    28    24    19   ar
@<TRIPOS>MOLECULE
*****
 25 28 0 0 0
SMALL
GASTEIGER

@<TRIPOS>ATOM
      1 O         142.9384  139.5714  166.3080 O.2     1  UNL1       -0.2520
      2 C         141.4464  139.4166  166.3075 C.2     1  UNL1        0.3111
      3 N         140.6341  138.7055  165.2661 N.am    1  UNL1       -0.2606
      4 C         139.1904  138.7952  165.6634 C.3     1  UNL1        0.1169
      5 C         139.1105  139.5617  166.9503 C.3     1  UNL1        0.1213
      6 N         140.5048  139.9458  167.3484 N.am    1  UNL1       -0.2391
      7 C         140.8898  140.7226  168.5724 C.ar    1  UNL1        0.0836
      8 C         140.4490  142.1482  168.7254 C.ar    1  UNL1        0.0286
      9 C         140.8341  142.9250  169.9495 C.ar    1  UNL1        0.0591
     10 CL        140.3933  144.3506  170.1025 Cl      1  UNL1       -0.0822
     11 C         141.6599  142.2762  171.0205 C.ar    1  UNL1        0.0138
     12 C         142.1006  140.8506  170.8675 C.ar    1  UNL1        0.0318
     13 C         141.7156  140.0738  169.6434 C.ar    1  UNL1        0.1538
     14 F         142.1564  138.6482  169.4904 F       1  UNL1       -0.2029
     15 C         141.1712  138.0244  164.0424 C.3     1  UNL1        0.1123
     16 C         141.6264  138.8401  162.8688 C.3     1  UNL1        0.0944
     17 N         141.9383  140.2968  163.0437 N.3     1  UNL1       -0.2637
     18 C         143.3086  140.9022  163.1197 C.3     1  UNL1        0.0992
     19 C         143.1519  142.3835  163.2963 C.ar    1  UNL1       -0.0088
     20 C         144.1556  143.4900  163.4311 C.ar    1  UNL1       -0.0032
     21 C         143.6921  144.9066  163.5992 C.ar    1  UNL1       -0.0003
     22 C         142.2248  145.2167  163.6324 C.ar    1  UNL1       -0.0003
     23 C         141.2211  144.1103  163.4975 C.ar    1  UNL1       -0.0032
     24 C         141.6846  142.6936  163.3295 C.ar    1  UNL1       -0.0088
     25 C         140.9346  141.4040  163.1734 C.3     1  UNL1        0.0992
@<TRIPOS>BOND
     1     1     2    2
     2     2     3   am
     3     3    15    1
     4    15    16    1
     5    16    17    1
     6    17    18    1
     7    18    19    1
     8    19    20   ar
     9    20    21   ar
    10    21    22   ar
    11    22    23   ar
    12    23    24   ar
    13    24    25    1
    14     3     4    1
    15     4     5    1
    16     5     6    1
    17     6     7    1
    18     7     8   ar
    19     8     9   ar
    20     9    10    1
    21     9    11   ar
    22    11    12   ar
    23    12    13   ar
    24    13    14    1
    25     6     2   am
    26    13     7   ar
    27    25    17    1
    28    24    19   ar
@<TRIPOS>MOLECULE
*****
 25 28 0 0 0
SMALL
GASTEIGER

@<TRIPOS>ATOM
      1 O         143.4372  142.7542  165.7094 O.2     1  UNL1       -0.2520
      2 C         143.7380  141.3186  165.3953 C.2     1  UNL1        0.3111
      3 N         144.7240  140.8266  164.3775 N.am    1  UNL1       -0.2606
      4 C         144.7010  139.3269  164.3971 C.3     1  UNL1        0.1169
      5 C         143.7008  138.8921  165.4270 C.3     1  UNL1        0.1213
      6 N         143.1057  140.1230  166.0439 N.am    1  UNL1       -0.2391
      7 C         142.0616  140.1530  167.1203 C.ar    1  UNL1        0.0836
      8 C         142.4593  140.4077  168.5441 C.ar    1  UNL1        0.0286
      9 C         141.4151  140.4377  169.6205 C.ar    1  UNL1        0.0591
     10 CL        141.8127  140.6924  171.0443 Cl      1  UNL1       -0.0822
     11 C         139.9732  140.2130  169.2732 C.ar    1  UNL1        0.0138
     12 C         139.5755  139.9583  167.8495 C.ar    1  UNL1        0.0318
     13 C         140.6197  139.9283  166.7731 C.ar    1  UNL1        0.1538
     14 F         140.2221  139.6736  165.3494 F       1  UNL1       -0.2029
     15 C         145.5822  141.6838  163.4951 C.3     1  UNL1        0.1123
     16 C         144.9996  142.3123  162.2640 C.3     1  UNL1        0.0944
     17 N         143.5965  142.8422  162.2847 N.3     1  UNL1       -0.2637
     18 C         143.1956  144.2670  162.5277 C.3     1  UNL1        0.0992
     19 C         141.6992  144.3457  162.4593 C.ar    1  UNL1       -0.0088
     20 C         140.7460  145.4927  162.6198 C.ar    1  UNL1       -0.0032
     21 C         139.2690  145.2635  162.4951 C.ar    1  UNL1       -0.0003
     22 C         138.7450  143.8872  162.2098 C.ar    1  UNL1       -0.0003
     23 C         139.6982  142.7402  162.0492 C.ar    1  UNL1       -0.0032
     24 C         141.1753  142.9695  162.1739 C.ar    1  UNL1       -0.0088
     25 C         142.3479  142.0402  162.0661 C.3     1  UNL1        0.0992
@<TRIPOS>BOND
     1     1     2    2
     2     2     3   am
     3     3    15    1
     4    15    16    1
     5    16    17    1
     6    17    18    1
     7    18    19    1
     8    19    20   ar
     9    20    21   ar
    10    21    22   ar
    11    22    23   ar
    12    23    24   ar
    13    24    25    1
    14     3     4    1
    15     4     5    1
    16     5     6    1
    17     6     7    1
    18     7     8   ar
    19     8     9   ar
    20     9    10    1
    21     9    11   ar
    22    11    12   ar
    23    12    13   ar
    24    13    14    1
    25     6     2   am
    26    13     7   ar
    27    25    17    1
    28    24    19   ar
@<TRIPOS>MOLECULE
*****
 25 28 0 0 0
SMALL
GASTEIGER

@<TRIPOS>ATOM
      1 O         140.3021  137.8287  165.1509 O.2     1  UNL1       -0.2520
      2 C         139.5410  138.9831  164.5693 C.2     1  UNL1        0.3111
      3 N         139.0932  139.1152  163.1438 N.am    1  UNL1       -0.2606
      4 C         138.3695  140.4218  163.0045 C.3     1  UNL1        0.1169
      5 C         138.3701  141.0970  164.3440 C.3     1  UNL1        0.1213
      6 N         139.0941  140.2078  165.3111 N.am    1  UNL1       -0.2391
      7 C         139.3298  140.4933  166.7646 C.ar    1  UNL1        0.0836
      8 C         140.2015  141.6444  167.1711 C.ar    1  UNL1        0.0286
      9 C         140.4371  141.9298  168.6247 C.ar    1  UNL1        0.0591
     10 CL        141.3088  143.0809  169.0313 Cl      1  UNL1       -0.0822
     11 C         139.8011  141.0643  169.6718 C.ar    1  UNL1        0.0138
     12 C         138.9295  139.9132  169.2652 C.ar    1  UNL1        0.0318
     13 C         138.6938  139.6278  167.8116 C.ar    1  UNL1        0.1538
     14 F         137.8222  138.4767  167.4051 F       1  UNL1       -0.2029
     15 C         139.3278  138.1163  162.0497 C.3     1  UNL1        0.1123
     16 C         140.6525  138.0704  161.3475 C.3     1  UNL1        0.0944
     17 N         141.7958  138.9028  161.8476 N.3     1  UNL1       -0.2637
     18 C         142.7911  138.4961  162.8935 C.3     1  UNL1        0.0992
     19 C         143.7549  139.6299  163.0820 C.ar    1  UNL1       -0.0088
     20 C         144.9448  139.7971  163.9799 C.ar    1  UNL1       -0.0032
     21 C         145.7350  141.0716  163.9482 C.ar    1  UNL1       -0.0003
     22 C         145.3354  142.1790  163.0187 C.ar    1  UNL1       -0.0003
     23 C         144.1455  142.0119  162.1209 C.ar    1  UNL1       -0.0032
     24 C         143.3553  140.7373  162.1525 C.ar    1  UNL1       -0.0088
     25 C         142.1445  140.2879  161.3896 C.3     1  UNL1        0.0992
@<TRIPOS>BOND
     1     1     2    2
     2     2     3   am
     3     3    15    1
     4    15    16    1
     5    16    17    1
     6    17    18    1
     7    18    19    1
     8    19    20   ar
     9    20    21   ar
    10    21    22   ar
    11    22    23   ar
    12    23    24   ar
    13    24    25    1
    14     3     4    1
    15     4     5    1
    16     5     6    1
    17     6     7    1
    18     7     8   ar
    19     8     9   ar
    20     9    10    1
    21     9    11   ar
    22    11    12   ar
    23    12    13   ar
    24    13    14    1
    25     6     2   am
    26    13     7   ar
    27    25    17    1
    28    24    19   ar
@<TRIPOS>MOLECULE
*****
 25 28 0 0 0
SMALL
GASTEIGER

@<TRIPOS>ATOM
      1 O         141.2790  140.6393  160.7940 O.2     1  UNL1       -0.2520
      2 C         142.5514  141.2098  161.3467 C.2     1  UNL1        0.3111
      3 N         143.8708  140.5015  161.4332 N.am    1  UNL1       -0.2606
      4 C         144.8627  141.4428  162.0500 C.3     1  UNL1        0.1169
      5 C         144.1561  142.7328  162.3447 C.3     1  UNL1        0.1213
      6 N         142.7277  142.5888  161.9100 N.am    1  UNL1       -0.2391
      7 C         141.6627  143.6393  162.0195 C.ar    1  UNL1        0.0836
      8 C         140.8743  143.7788  163.2879 C.ar    1  UNL1        0.0286
      9 C         139.8093  144.8294  163.3973 C.ar    1  UNL1        0.0591
     10 CL        139.0208  144.9688  164.6658 Cl      1  UNL1       -0.0822
     11 C         139.5327  145.7406  162.2383 C.ar    1  UNL1        0.0138
     12 C         140.3212  145.6011  160.9699 C.ar    1  UNL1        0.0318
     13 C         141.3862  144.5505  160.8605 C.ar    1  UNL1        0.1538
     14 F         142.1746  144.4111  159.5921 F       1  UNL1       -0.2029
     15 C         144.1495  139.0984  160.9821 C.3     1  UNL1        0.1123
     16 C         143.6946  137.9380  161.8167 C.3     1  UNL1        0.0944
     17 N         142.5851  138.1178  162.8101 N.3     1  UNL1       -0.2637
     18 C         141.1873  137.5906  162.6758 C.3     1  UNL1        0.0992
     19 C         140.4170  138.0034  163.8949 C.ar    1  UNL1       -0.0088
     20 C         138.9954  137.7679  164.3113 C.ar    1  UNL1       -0.0032
     21 C         138.4955  138.3149  165.6155 C.ar    1  UNL1       -0.0003
     22 C         139.4173  139.0974  166.5032 C.ar    1  UNL1       -0.0003
     23 C         140.8389  139.3328  166.0868 C.ar    1  UNL1       -0.0032
     24 C         141.3388  138.7858  164.7827 C.ar    1  UNL1       -0.0088
     25 C         142.6787  138.8566  164.1122 C.3     1  UNL1        0.0992
@<TRIPOS>BOND
     1     1     2    2
     2     2     3   am
     3     3    15    1
     4    15    16    1
     5    16    17    1
     6    17    18    1
     7    18    19    1
     8    19    20   ar
     9    20    21   ar
    10    21    22   ar
    11    22    23   ar
    12    23    24   ar
    13    24    25    1
    14     3     4    1
    15     4     5    1
    16     5     6    1
    17     6     7    1
    18     7     8   ar
    19     8     9   ar
    20     9    10    1
    21     9    11   ar
    22    11    12   ar
    23    12    13   ar
    24    13    14    1
    25     6     2   am
    26    13     7   ar
    27    25    17    1
    28    24    19   ar
