@<TRIPOS>MOLECULE
*****
 40 42 0 0 0
SMALL
GASTEIGER

@<TRIPOS>ATOM
      1 C         139.4533  140.4553  160.6668 C.3     1  UNL1        0.1518
      2 C         139.6571  140.4385  159.1807 C.3     1  UNL1        0.0310
      3 C         139.1447  141.7353  158.6279 C.3     1  UNL1        0.0237
      4 C         138.6241  142.5536  159.7723 C.3     1  UNL1        0.0939
      5 N         138.8149  141.7624  161.0323 N.am    1  UNL1       -0.2730
      6 C         138.4341  142.2014  162.4152 C.2     1  UNL1        0.2273
      7 O         138.6875  141.2978  163.5854 O.2     1  UNL1       -0.2748
      8 N         140.9407  139.5597  162.5996 N.am    1  UNL1       -0.2991
      9 C         139.8231  139.3575  161.6198 C.2     1  UNL1        0.2408
     10 O         139.0751  138.0576  161.5931 O.2     1  UNL1       -0.2733
     11 H         141.4316  140.4130  162.6171 H       1  UNL1        0.1498
     12 C         141.3105  138.4621  163.5527 C.3     1  UNL1        0.1164
     13 C         141.9948  139.3939  167.9016 C.ar    1  UNL1        0.1389
     14 C         143.1070  138.8226  167.0730 C.ar    1  UNL1        0.0366
     15 C         142.8788  138.5120  165.6233 C.ar    1  UNL1        0.0005
     16 C         141.5386  138.7727  165.0023 C.ar    1  UNL1       -0.0024
     17 C         140.4264  139.3439  165.8310 C.ar    1  UNL1        0.0005
     18 C         140.6545  139.6545  167.2806 C.ar    1  UNL1        0.0366
     19 O         142.2229  139.7045  169.3513 O.3     1  UNL1       -0.4736
     20 C         141.6361  140.9466  169.9535 C.3     1  UNL1        0.2017
     21 C         143.5935  142.5586  169.3880 C.3     1  UNL1        0.0041
     22 C         142.1220  142.2955  169.5129 C.3     1  UNL1        0.0456
     23 C         141.1365  143.3814  169.1971 C.3     1  UNL1        0.0041
     24 C         140.5633  140.8397  170.9965 C.2     1  UNL1        0.0900
     25 O         139.6106  139.6813  170.9766 O.co2   1  UNL1       -0.5455
     26 O         140.4432  141.8913  172.0594 O.co2   1  UNL1       -0.5455
     27 C         137.7999  143.5440  162.6279 C.3     1  UNL1        0.1010
     28 C         138.6563  144.7402  162.9205 C.3     1  UNL1        0.0644
     29 N         138.8572  145.7933  161.8714 N.3     1  UNL1       -0.3215
     30 H         138.3431  145.5363  161.0287 H       1  UNL1        0.1188
     31 H         139.8505  145.8708  161.6533 H       1  UNL1        0.1188
     32 C         139.3117  144.8834  164.2621 C.3     1  UNL1        0.0447
     33 C         140.6737  144.3007  164.4973 C.ar    1  UNL1        0.0088
     34 C         141.8533  144.8162  163.7272 C.ar    1  UNL1        0.0276
     35 C         143.2153  144.2335  163.9624 C.ar    1  UNL1        0.1400
     36 F         144.3948  144.7489  163.1923 F       1  UNL1       -0.2042
     37 C         143.3979  143.1353  164.9678 C.ar    1  UNL1        0.0319
     38 C         142.2184  142.6199  165.7379 C.ar    1  UNL1        0.0316
     39 C         140.8563  143.2025  165.5027 C.ar    1  UNL1        0.1363
     40 F         139.6767  142.6871  166.2728 F       1  UNL1       -0.2045
@<TRIPOS>UNITY_ATOM_ATTR
25 1
charge -1
@<TRIPOS>BOND
     1    21    22    1
     2    22    23    1
     3    22    20    1
     4    20    19    1
     5    19    13    1
     6    13    14   ar
     7    14    15   ar
     8    15    16   ar
     9    16    12    1
    10    12     8    1
    11     8     9   am
    12     9    10    2
    13     1     9    1
    14     1     2    1
    15     2     3    1
    16     3     4    1
    17     4     5    1
    18     5     6   am
    19     6     7    2
    20     6    27    1
    21    27    28    1
    22    28    29    1
    23    28    32    1
    24    32    33    1
    25    33    34   ar
    26    34    35   ar
    27    35    36    1
    28    35    37   ar
    29    37    38   ar
    30    38    39   ar
    31    39    40    1
    32    16    17   ar
    33    17    18   ar
    34    20    24    1
    35    24    25   ar
    36    24    26   ar
    37    18    13   ar
    38     5     1    1
    39    39    33   ar
    40     8    11    1
    41    29    30    1
    42    29    31    1
@<TRIPOS>MOLECULE
*****
 40 42 0 0 0
SMALL
GASTEIGER

@<TRIPOS>ATOM
      1 C         141.9943  138.7646  160.0143 C.3     1  UNL1        0.1518
      2 C         142.0943  138.1517  158.6489 C.3     1  UNL1        0.0310
      3 C         142.9860  139.0222  157.8142 C.3     1  UNL1        0.0237
      4 C         143.4372  140.1733  158.6637 C.3     1  UNL1        0.0939
      5 N         142.8243  140.0140  160.0235 N.am    1  UNL1       -0.2730
      6 C         143.0089  140.9414  161.1879 C.2     1  UNL1        0.2273
      7 O         142.3289  140.6510  162.4930 O.2     1  UNL1       -0.2748
      8 N         141.9060  137.5475  162.3080 N.am    1  UNL1       -0.2991
      9 C         141.2031  138.2231  161.1681 C.2     1  UNL1        0.2408
     10 O         139.7093  138.3573  161.1818 O.2     1  UNL1       -0.2733
     11 H         142.8865  137.4595  162.2990 H       1  UNL1        0.1498
     12 C         141.1150  137.0061  163.4617 C.3     1  UNL1        0.1164
     13 C         139.8888  139.7319  166.8257 C.ar    1  UNL1        0.1389
     14 C         138.8512  138.9429  166.0835 C.ar    1  UNL1        0.0366
     15 C         139.2599  138.0343  164.9622 C.ar    1  UNL1        0.0005
     16 C         140.7062  137.9147  164.5830 C.ar    1  UNL1       -0.0024
     17 C         141.7438  138.7037  165.3252 C.ar    1  UNL1        0.0005
     18 C         141.3351  139.6123  166.4465 C.ar    1  UNL1        0.0366
     19 O         139.4800  140.6406  167.9470 O.3     1  UNL1       -0.4736
     20 C         140.4410  140.9379  169.0596 C.3     1  UNL1        0.2017
     21 C         140.4582  143.5040  169.4658 C.3     1  UNL1        0.0041
     22 C         141.1780  142.2441  169.0852 C.3     1  UNL1        0.0456
     23 C         142.6346  142.2905  168.7303 C.3     1  UNL1        0.0041
     24 C         140.6651  139.9289  170.1468 C.2     1  UNL1        0.0900
     25 O         141.9766  139.2070  170.2413 O.co2   1  UNL1       -0.5455
     26 O         139.5778  139.6419  171.1394 O.co2   1  UNL1       -0.5455
     27 C         143.8735  142.1590  161.0473 C.3     1  UNL1        0.1010
     28 C         144.6660  142.6557  162.2200 C.3     1  UNL1        0.0644
     29 N         145.9079  141.9310  162.6470 N.3     1  UNL1       -0.3215
     30 H         146.0625  141.1308  162.0336 H       1  UNL1        0.1188
     31 H         145.7991  141.6068  163.6079 H       1  UNL1        0.1188
     32 C         144.2164  143.8771  162.9657 C.3     1  UNL1        0.0447
     33 C         142.8472  143.9213  163.5765 C.ar    1  UNL1        0.0088
     34 C         141.7769  144.7707  162.9575 C.ar    1  UNL1        0.0276
     35 C         140.4076  144.8149  163.5683 C.ar    1  UNL1        0.1400
     36 F         139.3374  145.6643  162.9494 F       1  UNL1       -0.2042
     37 C         140.1085  144.0098  164.7981 C.ar    1  UNL1        0.0319
     38 C         141.1788  143.1604  165.4171 C.ar    1  UNL1        0.0316
     39 C         142.5481  143.1161  164.8063 C.ar    1  UNL1        0.1363
     40 F         143.6184  142.2668  165.4252 F       1  UNL1       -0.2045
@<TRIPOS>UNITY_ATOM_ATTR
25 1
charge -1
@<TRIPOS>BOND
     1    21    22    1
     2    22    23    1
     3    22    20    1
     4    20    19    1
     5    19    13    1
     6    13    14   ar
     7    14    15   ar
     8    15    16   ar
     9    16    12    1
    10    12     8    1
    11     8     9   am
    12     9    10    2
    13     1     9    1
    14     1     2    1
    15     2     3    1
    16     3     4    1
    17     4     5    1
    18     5     6   am
    19     6     7    2
    20     6    27    1
    21    27    28    1
    22    28    29    1
    23    28    32    1
    24    32    33    1
    25    33    34   ar
    26    34    35   ar
    27    35    36    1
    28    35    37   ar
    29    37    38   ar
    30    38    39   ar
    31    39    40    1
    32    16    17   ar
    33    17    18   ar
    34    20    24    1
    35    24    25   ar
    36    24    26   ar
    37    18    13   ar
    38     5     1    1
    39    39    33   ar
    40     8    11    1
    41    29    30    1
    42    29    31    1
@<TRIPOS>MOLECULE
*****
 40 42 0 0 0
SMALL
GASTEIGER

@<TRIPOS>ATOM
      1 C         142.4079  139.6640  160.1446 C.3     1  UNL1        0.1518
      2 C         142.9631  139.3627  158.7841 C.3     1  UNL1        0.0310
      3 C         143.9682  140.4242  158.4481 C.3     1  UNL1        0.0237
      4 C         144.0341  141.3816  159.6010 C.3     1  UNL1        0.0939
      5 N         143.0699  140.9117  160.6495 N.am    1  UNL1       -0.2730
      6 C         142.8127  141.5735  161.9708 C.2     1  UNL1        0.2273
      7 O         141.8136  140.9849  162.9225 O.2     1  UNL1       -0.2748
      8 N         139.9724  139.3807  161.0038 N.am    1  UNL1       -0.2991
      9 C         141.3725  138.8588  160.8725 C.2     1  UNL1        0.2408
     10 O         141.7373  137.5317  161.4691 O.2     1  UNL1       -0.2733
     11 H         139.7330  140.2516  160.6122 H       1  UNL1        0.1498
     12 C         138.9370  138.5755  161.7316 C.3     1  UNL1        0.1164
     13 C         138.4943  138.9843  166.1911 C.ar    1  UNL1        0.1389
     14 C         139.0183  137.7076  165.6033 C.ar    1  UNL1        0.0366
     15 C         139.1659  137.5714  164.1168 C.ar    1  UNL1        0.0005
     16 C         138.7895  138.7118  163.2181 C.ar    1  UNL1       -0.0024
     17 C         138.2654  139.9884  163.8059 C.ar    1  UNL1        0.0005
     18 C         138.1179  140.1247  165.2924 C.ar    1  UNL1        0.0366
     19 O         138.3467  139.1205  167.6776 O.3     1  UNL1       -0.4736
     20 C         139.2517  140.0425  168.4397 C.3     1  UNL1        0.2017
     21 C         141.7110  139.7726  167.6466 C.3     1  UNL1        0.0041
     22 C         140.4733  140.6096  167.7793 C.3     1  UNL1        0.0456
     23 C         140.4572  142.0136  167.2516 C.3     1  UNL1        0.0041
     24 C         138.9350  140.3975  169.8623 C.2     1  UNL1        0.0900
     25 O         139.3509  141.7292  170.4134 O.co2   1  UNL1       -0.5455
     26 O         138.2026  139.4209  170.7338 O.co2   1  UNL1       -0.5455
     27 C         143.5544  142.8236  162.3406 C.3     1  UNL1        0.1010
     28 C         142.8684  144.1550  162.2581 C.3     1  UNL1        0.0644
     29 N         143.5088  145.3676  162.8661 N.3     1  UNL1       -0.3215
     30 H         144.3988  145.1056  163.2900 H       1  UNL1        0.1188
     31 H         142.8928  145.7551  163.5807 H       1  UNL1        0.1188
     32 C         141.5421  144.2738  161.5676 C.3     1  UNL1        0.0447
     33 C         140.2724  144.1700  162.3595 C.ar    1  UNL1        0.0088
     34 C         140.1857  144.7903  163.7225 C.ar    1  UNL1        0.0276
     35 C         138.9160  144.6865  164.5144 C.ar    1  UNL1        0.1400
     36 F         138.8293  145.3068  165.8774 F       1  UNL1       -0.2042
     37 C         137.7329  143.9625  163.9433 C.ar    1  UNL1        0.0319
     38 C         137.8196  143.3422  162.5803 C.ar    1  UNL1        0.0316
     39 C         139.0893  143.4459  161.7883 C.ar    1  UNL1        0.1363
     40 F         139.1760  142.8257  160.4253 F       1  UNL1       -0.2045
@<TRIPOS>UNITY_ATOM_ATTR
25 1
charge -1
@<TRIPOS>BOND
     1    21    22    1
     2    22    23    1
     3    22    20    1
     4    20    19    1
     5    19    13    1
     6    13    14   ar
     7    14    15   ar
     8    15    16   ar
     9    16    12    1
    10    12     8    1
    11     8     9   am
    12     9    10    2
    13     1     9    1
    14     1     2    1
    15     2     3    1
    16     3     4    1
    17     4     5    1
    18     5     6   am
    19     6     7    2
    20     6    27    1
    21    27    28    1
    22    28    29    1
    23    28    32    1
    24    32    33    1
    25    33    34   ar
    26    34    35   ar
    27    35    36    1
    28    35    37   ar
    29    37    38   ar
    30    38    39   ar
    31    39    40    1
    32    16    17   ar
    33    17    18   ar
    34    20    24    1
    35    24    25   ar
    36    24    26   ar
    37    18    13   ar
    38     5     1    1
    39    39    33   ar
    40     8    11    1
    41    29    30    1
    42    29    31    1
@<TRIPOS>MOLECULE
*****
 40 42 0 0 0
SMALL
GASTEIGER

@<TRIPOS>ATOM
      1 C         140.1989  142.3931  160.5017 C.3     1  UNL1        0.1518
      2 C         139.8906  142.3164  159.0357 C.3     1  UNL1        0.0310
      3 C         141.1851  142.4128  158.2841 C.3     1  UNL1        0.0237
      4 C         142.2935  142.5491  159.2856 C.3     1  UNL1        0.0939
      5 N         141.6840  142.5369  160.6561 N.am    1  UNL1       -0.2730
      6 C         142.4289  142.6489  161.9533 C.2     1  UNL1        0.2273
      7 O         141.6801  142.6214  163.2528 O.2     1  UNL1       -0.2748
      8 N         139.1241  141.1237  162.4975 N.am    1  UNL1       -0.2991
      9 C         139.1979  142.3361  161.6174 C.2     1  UNL1        0.2408
     10 O         138.2707  143.4914  161.8529 O.2     1  UNL1       -0.2733
     11 H         139.7326  140.3654  162.3429 H       1  UNL1        0.1498
     12 C         138.1231  141.0666  163.6132 C.3     1  UNL1        0.1164
     13 C         139.4714  140.1134  167.7993 C.ar    1  UNL1        0.1389
     14 C         140.0438  141.2976  167.0783 C.ar    1  UNL1        0.0366
     15 C         139.5944  141.6154  165.6830 C.ar    1  UNL1        0.0005
     16 C         138.5725  140.7488  165.0085 C.ar    1  UNL1       -0.0024
     17 C         138.0001  139.5646  165.7295 C.ar    1  UNL1        0.0005
     18 C         138.4495  139.2468  167.1249 C.ar    1  UNL1        0.0366
     19 O         139.9208  139.7956  169.1946 O.3     1  UNL1       -0.4736
     20 C         140.8973  140.6962  169.8914 C.3     1  UNL1        0.2017
     21 C         142.8407  138.9748  169.9912 C.3     1  UNL1        0.0041
     22 C         142.3649  140.3899  169.8452 C.3     1  UNL1        0.0456
     23 C         143.3568  141.4985  169.6529 C.3     1  UNL1        0.0041
     24 C         140.4061  141.9031  170.6345 C.2     1  UNL1        0.0900
     25 O         139.9329  143.1087  169.8777 O.co2   1  UNL1       -0.5455
     26 O         140.3880  141.9045  172.1344 O.co2   1  UNL1       -0.5455
     27 C         143.9223  142.7883  161.9510 C.3     1  UNL1        0.1010
     28 C         144.7795  141.6853  162.4974 C.3     1  UNL1        0.0644
     29 N         146.0107  142.0142  163.2886 N.3     1  UNL1       -0.3215
     30 H         146.1110  143.0270  163.3562 H       1  UNL1        0.1188
     31 H         146.8290  141.6219  162.8228 H       1  UNL1        0.1188
     32 C         144.4054  140.2535  162.2527 C.3     1  UNL1        0.0447
     33 C         143.5820  139.5103  163.2625 C.ar    1  UNL1        0.0088
     34 C         144.1626  139.1777  164.6051 C.ar    1  UNL1        0.0276
     35 C         143.3392  138.4345  165.6149 C.ar    1  UNL1        0.1400
     36 F         143.9197  138.1019  166.9574 F       1  UNL1       -0.2042
     37 C         141.9353  138.0239  165.2823 C.ar    1  UNL1        0.0319
     38 C         141.3549  138.3565  163.9397 C.ar    1  UNL1        0.0316
     39 C         142.1782  139.0997  162.9298 C.ar    1  UNL1        0.1363
     40 F         141.5977  139.4323  161.5873 F       1  UNL1       -0.2045
@<TRIPOS>UNITY_ATOM_ATTR
25 1
charge -1
@<TRIPOS>BOND
     1    21    22    1
     2    22    23    1
     3    22    20    1
     4    20    19    1
     5    19    13    1
     6    13    14   ar
     7    14    15   ar
     8    15    16   ar
     9    16    12    1
    10    12     8    1
    11     8     9   am
    12     9    10    2
    13     1     9    1
    14     1     2    1
    15     2     3    1
    16     3     4    1
    17     4     5    1
    18     5     6   am
    19     6     7    2
    20     6    27    1
    21    27    28    1
    22    28    29    1
    23    28    32    1
    24    32    33    1
    25    33    34   ar
    26    34    35   ar
    27    35    36    1
    28    35    37   ar
    29    37    38   ar
    30    38    39   ar
    31    39    40    1
    32    16    17   ar
    33    17    18   ar
    34    20    24    1
    35    24    25   ar
    36    24    26   ar
    37    18    13   ar
    38     5     1    1
    39    39    33   ar
    40     8    11    1
    41    29    30    1
    42    29    31    1
@<TRIPOS>MOLECULE
*****
 40 42 0 0 0
SMALL
GASTEIGER

@<TRIPOS>ATOM
      1 C         141.5665  138.8908  161.1161 C.3     1  UNL1        0.1518
      2 C         141.5748  138.5042  159.6668 C.3     1  UNL1        0.0310
      3 C         142.9049  138.8912  159.0914 C.3     1  UNL1        0.0237
      4 C         143.7187  139.5169  160.1852 C.3     1  UNL1        0.0939
      5 N         142.8915  139.5166  161.4365 N.am    1  UNL1       -0.2730
      6 C         143.3150  140.0488  162.7734 C.2     1  UNL1        0.2273
      7 O         142.3748  139.9797  163.9402 O.2     1  UNL1       -0.2748
      8 N         139.5994  139.8561  162.5121 N.am    1  UNL1       -0.2991
      9 C         140.4323  138.6871  162.0765 C.2     1  UNL1        0.2408
     10 O         140.1311  137.3146  162.6012 O.2     1  UNL1       -0.2733
     11 H         139.7972  140.7570  162.1678 H       1  UNL1        0.1498
     12 C         138.4653  139.6526  163.4725 C.3     1  UNL1        0.1164
     13 C         139.1929  139.9281  167.9047 C.ar    1  UNL1        0.1389
     14 C         139.8102  140.9344  166.9793 C.ar    1  UNL1        0.0366
     15 C         139.5677  140.8425  165.5019 C.ar    1  UNL1        0.0005
     16 C         138.7078  139.7444  164.9499 C.ar    1  UNL1       -0.0024
     17 C         138.0905  138.7382  165.8752 C.ar    1  UNL1        0.0005
     18 C         138.3330  138.8301  167.3526 C.ar    1  UNL1        0.0366
     19 O         139.4354  140.0200  169.3821 O.3     1  UNL1       -0.4736
     20 C         140.5871  140.8268  169.9043 C.3     1  UNL1        0.2017
     21 C         143.0267  141.2900  169.1404 C.3     1  UNL1        0.0041
     22 C         141.9937  140.3518  169.6905 C.3     1  UNL1        0.0456
     23 C         142.3673  138.9385  170.0268 C.3     1  UNL1        0.0041
     24 C         140.3321  142.1087  170.6405 C.2     1  UNL1        0.0900
     25 O         139.8754  143.3255  169.8916 O.co2   1  UNL1       -0.5455
     26 O         140.5338  142.1738  172.1254 O.co2   1  UNL1       -0.5455
     27 C         144.6786  140.6500  162.9437 C.3     1  UNL1        0.1010
     28 C         144.8984  142.1052  162.6536 C.3     1  UNL1        0.0644
     29 N         145.5718  142.5226  161.3799 N.3     1  UNL1       -0.3215
     30 H         145.8110  141.6945  160.8346 H       1  UNL1        0.1188
     31 H         146.4215  143.0425  161.5991 H       1  UNL1        0.1188
     32 C         144.4447  143.1429  163.6371 C.3     1  UNL1        0.0447
     33 C         143.0578  143.7071  163.5459 C.ar    1  UNL1        0.0088
     34 C         142.6302  144.4511  162.3156 C.ar    1  UNL1        0.0276
     35 C         141.2433  145.0152  162.2245 C.ar    1  UNL1        0.1400
     36 F         140.8157  145.7592  160.9942 F       1  UNL1       -0.2042
     37 C         140.2841  144.8355  163.3636 C.ar    1  UNL1        0.0319
     38 C         140.7118  144.0915  164.5939 C.ar    1  UNL1        0.0316
     39 C         142.0987  143.5273  164.6851 C.ar    1  UNL1        0.1363
     40 F         142.5263  142.7833  165.9154 F       1  UNL1       -0.2045
@<TRIPOS>UNITY_ATOM_ATTR
25 1
charge -1
@<TRIPOS>BOND
     1    21    22    1
     2    22    23    1
     3    22    20    1
     4    20    19    1
     5    19    13    1
     6    13    14   ar
     7    14    15   ar
     8    15    16   ar
     9    16    12    1
    10    12     8    1
    11     8     9   am
    12     9    10    2
    13     1     9    1
    14     1     2    1
    15     2     3    1
    16     3     4    1
    17     4     5    1
    18     5     6   am
    19     6     7    2
    20     6    27    1
    21    27    28    1
    22    28    29    1
    23    28    32    1
    24    32    33    1
    25    33    34   ar
    26    34    35   ar
    27    35    36    1
    28    35    37   ar
    29    37    38   ar
    30    38    39   ar
    31    39    40    1
    32    16    17   ar
    33    17    18   ar
    34    20    24    1
    35    24    25   ar
    36    24    26   ar
    37    18    13   ar
    38     5     1    1
    39    39    33   ar
    40     8    11    1
    41    29    30    1
    42    29    31    1
@<TRIPOS>MOLECULE
*****
 40 42 0 0 0
SMALL
GASTEIGER

@<TRIPOS>ATOM
      1 C         140.6029  144.4931  160.4785 C.3     1  UNL1        0.1518
      2 C         140.3298  145.3926  159.3096 C.3     1  UNL1        0.0310
      3 C         141.3975  145.1559  158.2830 C.3     1  UNL1        0.0237
      4 C         142.3306  144.1100  158.8175 C.3     1  UNL1        0.0939
      5 N         141.8395  143.7004  160.1744 N.am    1  UNL1       -0.2730
      6 C         142.4737  142.6778  161.0698 C.2     1  UNL1        0.2273
      7 O         141.8660  142.3715  162.4067 O.2     1  UNL1       -0.2748
      8 N         138.8771  143.2274  161.9515 N.am    1  UNL1       -0.2991
      9 C         139.7833  144.4023  161.7316 C.2     1  UNL1        0.2408
     10 O         139.8700  145.4863  162.7647 O.2     1  UNL1       -0.2733
     11 H         138.8202  142.5159  161.2734 H       1  UNL1        0.1498
     12 C         138.0575  143.1365  163.2045 C.3     1  UNL1        0.1164
     13 C         139.3639  140.4332  166.5564 C.ar    1  UNL1        0.1389
     14 C         139.9250  141.8201  166.4494 C.ar    1  UNL1        0.0366
     15 C         139.4896  142.7213  165.3321 C.ar    1  UNL1        0.0005
     16 C         138.4930  142.2354  164.3218 C.ar    1  UNL1       -0.0024
     17 C         137.9318  140.8485  164.4288 C.ar    1  UNL1        0.0005
     18 C         138.3673  139.9474  165.5461 C.ar    1  UNL1        0.0366
     19 O         139.7993  139.5321  167.6737 O.3     1  UNL1       -0.4736
     20 C         140.2801  140.1199  168.9673 C.3     1  UNL1        0.2017
     21 C         142.4247  138.9884  169.9004 C.3     1  UNL1        0.0041
     22 C         141.7487  140.1692  169.2687 C.3     1  UNL1        0.0456
     23 C         142.5412  141.3991  168.9385 C.3     1  UNL1        0.0041
     24 C         139.2923  140.6584  169.9595 C.2     1  UNL1        0.0900
     25 O         138.1228  139.8205  170.3838 O.co2   1  UNL1       -0.5455
     26 O         139.4741  142.0348  170.5272 O.co2   1  UNL1       -0.5455
     27 C         143.7154  141.9613  160.6287 C.3     1  UNL1        0.1010
     28 C         144.5557  141.2290  161.6325 C.3     1  UNL1        0.0644
     29 N         145.5696  141.9747  162.4484 N.3     1  UNL1       -0.3215
     30 H         145.5528  142.9619  162.1923 H       1  UNL1        0.1188
     31 H         146.4982  141.5927  162.2688 H       1  UNL1        0.1188
     32 C         144.3819  139.7510  161.8204 C.3     1  UNL1        0.0447
     33 C         143.5430  139.2321  162.9505 C.ar    1  UNL1        0.0088
     34 C         142.1417  138.7642  162.6908 C.ar    1  UNL1        0.0276
     35 C         141.3028  138.2453  163.8208 C.ar    1  UNL1        0.1400
     36 F         139.9015  137.7774  163.5611 F       1  UNL1       -0.2042
     37 C         141.8651  138.1943  165.2105 C.ar    1  UNL1        0.0319
     38 C         143.2664  138.6623  165.4701 C.ar    1  UNL1        0.0316
     39 C         144.1054  139.1812  164.3401 C.ar    1  UNL1        0.1363
     40 F         145.5067  139.6491  164.5997 F       1  UNL1       -0.2045
@<TRIPOS>UNITY_ATOM_ATTR
25 1
charge -1
@<TRIPOS>BOND
     1    21    22    1
     2    22    23    1
     3    22    20    1
     4    20    19    1
     5    19    13    1
     6    13    14   ar
     7    14    15   ar
     8    15    16   ar
     9    16    12    1
    10    12     8    1
    11     8     9   am
    12     9    10    2
    13     1     9    1
    14     1     2    1
    15     2     3    1
    16     3     4    1
    17     4     5    1
    18     5     6   am
    19     6     7    2
    20     6    27    1
    21    27    28    1
    22    28    29    1
    23    28    32    1
    24    32    33    1
    25    33    34   ar
    26    34    35   ar
    27    35    36    1
    28    35    37   ar
    29    37    38   ar
    30    38    39   ar
    31    39    40    1
    32    16    17   ar
    33    17    18   ar
    34    20    24    1
    35    24    25   ar
    36    24    26   ar
    37    18    13   ar
    38     5     1    1
    39    39    33   ar
    40     8    11    1
    41    29    30    1
    42    29    31    1
@<TRIPOS>MOLECULE
*****
 40 42 0 0 0
SMALL
GASTEIGER

@<TRIPOS>ATOM
      1 C         139.1091  142.4750  159.9993 C.3     1  UNL1        0.1518
      2 C         138.4270  142.5512  158.6655 C.3     1  UNL1        0.0310
      3 C         139.4866  142.6034  157.6052 C.3     1  UNL1        0.0237
      4 C         140.8237  142.5595  158.2836 C.3     1  UNL1        0.0939
      5 N         140.5904  142.4802  159.7632 N.am    1  UNL1       -0.2730
      6 C         141.6520  142.4171  160.8210 C.2     1  UNL1        0.2273
      7 O         141.2650  142.3403  162.2683 O.2     1  UNL1       -0.2748
      8 N         138.3987  141.1130  162.0946 N.am    1  UNL1       -0.2991
      9 C         138.4293  142.4059  161.3346 C.2     1  UNL1        0.2408
     10 O         137.7801  143.6295  161.9100 O.2     1  UNL1       -0.2733
     11 H         138.8248  140.3098  161.7169 H       1  UNL1        0.1498
     12 C         137.7190  141.0438  163.4299 C.3     1  UNL1        0.1164
     13 C         140.1347  140.2724  167.1472 C.ar    1  UNL1        0.1389
     14 C         140.4984  141.4093  166.2390 C.ar    1  UNL1        0.0366
     15 C         139.6931  141.6665  164.9998 C.ar    1  UNL1        0.0005
     16 C         138.5242  140.7866  164.6690 C.ar    1  UNL1       -0.0024
     17 C         138.1606  139.6497  165.5773 C.ar    1  UNL1        0.0005
     18 C         138.9658  139.3925  166.8164 C.ar    1  UNL1        0.0366
     19 O         140.9400  140.0152  168.3864 O.3     1  UNL1       -0.4736
     20 C         140.8578  140.9647  169.5447 C.3     1  UNL1        0.2017
     21 C         140.6447  143.5537  169.5884 C.3     1  UNL1        0.0041
     22 C         141.4892  142.3219  169.4482 C.3     1  UNL1        0.0456
     23 C         142.9651  142.4473  169.2117 C.3     1  UNL1        0.0041
     24 C         140.1442  140.5569  170.7995 C.2     1  UNL1        0.0900
     25 O         140.6511  141.0176  172.1340 O.co2   1  UNL1       -0.5455
     26 O         138.9238  139.6886  170.7199 O.co2   1  UNL1       -0.5455
     27 C         143.1005  142.4308  160.4318 C.3     1  UNL1        0.1010
     28 C         144.1116  141.7165  161.2788 C.3     1  UNL1        0.0644
     29 N         145.1538  142.4983  162.0221 N.3     1  UNL1       -0.3215
     30 H         145.0273  143.4937  161.8387 H       1  UNL1        0.1188
     31 H         146.0814  142.2104  161.7105 H       1  UNL1        0.1188
     32 C         144.0806  140.2204  161.3825 C.3     1  UNL1        0.0447
     33 C         143.4300  139.5638  162.5638 C.ar    1  UNL1        0.0088
     34 C         142.0375  139.0185  162.4461 C.ar    1  UNL1        0.0276
     35 C         141.3869  138.3619  163.6274 C.ar    1  UNL1        0.1400
     36 F         139.9945  137.8165  163.5098 F       1  UNL1       -0.2042
     37 C         142.1286  138.2506  164.9265 C.ar    1  UNL1        0.0319
     38 C         143.5210  138.7959  165.0442 C.ar    1  UNL1        0.0316
     39 C         144.1717  139.4526  163.8628 C.ar    1  UNL1        0.1363
     40 F         145.5641  139.9979  163.9805 F       1  UNL1       -0.2045
@<TRIPOS>UNITY_ATOM_ATTR
25 1
charge -1
@<TRIPOS>BOND
     1    21    22    1
     2    22    23    1
     3    22    20    1
     4    20    19    1
     5    19    13    1
     6    13    14   ar
     7    14    15   ar
     8    15    16   ar
     9    16    12    1
    10    12     8    1
    11     8     9   am
    12     9    10    2
    13     1     9    1
    14     1     2    1
    15     2     3    1
    16     3     4    1
    17     4     5    1
    18     5     6   am
    19     6     7    2
    20     6    27    1
    21    27    28    1
    22    28    29    1
    23    28    32    1
    24    32    33    1
    25    33    34   ar
    26    34    35   ar
    27    35    36    1
    28    35    37   ar
    29    37    38   ar
    30    38    39   ar
    31    39    40    1
    32    16    17   ar
    33    17    18   ar
    34    20    24    1
    35    24    25   ar
    36    24    26   ar
    37    18    13   ar
    38     5     1    1
    39    39    33   ar
    40     8    11    1
    41    29    30    1
    42    29    31    1
@<TRIPOS>MOLECULE
*****
 40 42 0 0 0
SMALL
GASTEIGER

@<TRIPOS>ATOM
      1 C         140.4147  144.1683  159.4559 C.3     1  UNL1        0.1518
      2 C         140.4810  144.9544  158.1801 C.3     1  UNL1        0.0310
      3 C         139.6055  144.2737  157.1701 C.3     1  UNL1        0.0237
      4 C         138.9982  143.0667  157.8216 C.3     1  UNL1        0.0939
      5 N         139.4982  143.0016  159.2343 N.am    1  UNL1       -0.2730
      6 C         139.1441  141.9538  160.2475 C.2     1  UNL1        0.2273
      7 O         139.7252  142.0195  161.6289 O.2     1  UNL1       -0.2748
      8 N         140.3681  144.9444  161.9349 N.am    1  UNL1       -0.2991
      9 C         141.1379  144.4920  160.7296 C.2     1  UNL1        0.2408
     10 O         142.6307  144.3632  160.7980 O.2     1  UNL1       -0.2733
     11 H         139.3883  145.0289  161.8900 H       1  UNL1        0.1498
     12 C         141.0912  145.2681  163.2086 C.3     1  UNL1        0.1164
     13 C         141.3502  142.2007  166.4909 C.ar    1  UNL1        0.1389
     14 C         142.5574  142.5094  165.6560 C.ar    1  UNL1        0.0366
     15 C         142.4711  143.5319  164.5619 C.ar    1  UNL1        0.0005
     16 C         141.1775  144.2456  164.3027 C.ar    1  UNL1       -0.0024
     17 C         139.9703  143.9369  165.1376 C.ar    1  UNL1        0.0005
     18 C         140.0566  142.9144  166.2318 C.ar    1  UNL1        0.0366
     19 O         141.4365  141.1782  167.5851 O.3     1  UNL1       -0.4736
     20 C         140.9227  141.5022  168.9566 C.3     1  UNL1        0.2017
     21 C         142.7793  142.8724  170.1506 C.3     1  UNL1        0.0041
     22 C         141.3706  142.7554  169.6486 C.3     1  UNL1        0.0456
     23 C         140.4099  143.8915  169.8386 C.3     1  UNL1        0.0041
     24 C         139.9610  140.5729  169.6361 C.2     1  UNL1        0.0900
     25 O         139.9855  140.4287  171.1290 O.co2   1  UNL1       -0.5455
     26 O         138.9750  139.7880  168.8228 O.co2   1  UNL1       -0.5455
     27 C         138.2088  140.8403  159.8795 C.3     1  UNL1        0.1010
     28 C         138.5549  139.4235  160.2298 C.3     1  UNL1        0.0644
     29 N         139.5822  138.6819  159.4267 N.3     1  UNL1       -0.3215
     30 H         139.9390  139.2882  158.6882 H       1  UNL1        0.1188
     31 H         139.1557  137.8541  159.0106 H       1  UNL1        0.1188
     32 C         137.8738  138.7481  161.3830 C.3     1  UNL1        0.0447
     33 C         138.5234  138.7356  162.7349 C.ar    1  UNL1        0.0088
     34 C         139.5408  137.6849  163.0684 C.ar    1  UNL1        0.0276
     35 C         140.1905  137.6724  164.4203 C.ar    1  UNL1        0.1400
     36 F         141.2078  136.6218  164.7538 F       1  UNL1       -0.2042
     37 C         139.8229  138.7105  165.4388 C.ar    1  UNL1        0.0319
     38 C         138.8056  139.7612  165.1053 C.ar    1  UNL1        0.0316
     39 C         138.1558  139.7738  163.7534 C.ar    1  UNL1        0.1363
     40 F         137.1385  140.8244  163.4199 F       1  UNL1       -0.2045
@<TRIPOS>UNITY_ATOM_ATTR
25 1
charge -1
@<TRIPOS>BOND
     1    21    22    1
     2    22    23    1
     3    22    20    1
     4    20    19    1
     5    19    13    1
     6    13    14   ar
     7    14    15   ar
     8    15    16   ar
     9    16    12    1
    10    12     8    1
    11     8     9   am
    12     9    10    2
    13     1     9    1
    14     1     2    1
    15     2     3    1
    16     3     4    1
    17     4     5    1
    18     5     6   am
    19     6     7    2
    20     6    27    1
    21    27    28    1
    22    28    29    1
    23    28    32    1
    24    32    33    1
    25    33    34   ar
    26    34    35   ar
    27    35    36    1
    28    35    37   ar
    29    37    38   ar
    30    38    39   ar
    31    39    40    1
    32    16    17   ar
    33    17    18   ar
    34    20    24    1
    35    24    25   ar
    36    24    26   ar
    37    18    13   ar
    38     5     1    1
    39    39    33   ar
    40     8    11    1
    41    29    30    1
    42    29    31    1
@<TRIPOS>MOLECULE
*****
 40 42 0 0 0
SMALL
GASTEIGER

@<TRIPOS>ATOM
      1 C         143.5169  142.2304  160.3262 C.3     1  UNL1        0.1518
      2 C         144.3461  142.5468  159.1169 C.3     1  UNL1        0.0310
      3 C         143.4244  142.6556  157.9385 C.3     1  UNL1        0.0237
      4 C         142.0256  142.4064  158.4196 C.3     1  UNL1        0.0939
      5 N         142.0828  142.1437  159.8952 N.am    1  UNL1       -0.2730
      6 C         140.9115  141.8464  160.7839 C.2     1  UNL1        0.2273
      7 O         141.1242  141.6035  162.2488 O.2     1  UNL1       -0.2748
      8 N         144.0548  140.6630  162.3273 N.am    1  UNL1       -0.2991
      9 C         144.0316  142.0351  161.7216 C.2     1  UNL1        0.2408
     10 O         144.5231  143.2119  162.5113 O.2     1  UNL1       -0.2733
     11 H         143.7322  139.8907  161.8090 H       1  UNL1        0.1498
     12 C         144.5694  140.4677  163.7226 C.3     1  UNL1        0.1164
     13 C         141.7079  140.4586  167.1956 C.ar    1  UNL1        0.1389
     14 C         142.3938  139.1892  166.7856 C.ar    1  UNL1        0.0366
     15 C         143.3477  139.1922  165.6279 C.ar    1  UNL1        0.0005
     16 C         143.6156  140.4646  164.8802 C.ar    1  UNL1       -0.0024
     17 C         142.9296  141.7340  165.2902 C.ar    1  UNL1        0.0005
     18 C         141.9758  141.7310  166.4479 C.ar    1  UNL1        0.0366
     19 O         140.7541  140.4555  168.3532 O.3     1  UNL1       -0.4736
     20 C         141.2048  140.9445  169.6977 C.3     1  UNL1        0.2017
     21 C         143.2549  139.6816  170.6736 C.3     1  UNL1        0.0041
     22 C         142.6607  140.9135  170.0577 C.3     1  UNL1        0.0456
     23 C         143.5223  142.1143  169.8017 C.3     1  UNL1        0.0041
     24 C         140.1997  141.4646  170.6823 C.2     1  UNL1        0.0900
     25 O         140.6614  142.1465  171.9360 O.co2   1  UNL1       -0.5455
     26 O         138.7330  141.3028  170.4131 O.co2   1  UNL1       -0.5455
     27 C         139.5277  141.7919  160.2078 C.3     1  UNL1        0.1010
     28 C         138.3366  141.7600  161.1189 C.3     1  UNL1        0.0644
     29 N         137.7734  143.0397  161.6622 N.3     1  UNL1       -0.3215
     30 H         138.3190  143.8270  161.3118 H       1  UNL1        0.1188
     31 H         137.8148  143.0239  162.6812 H       1  UNL1        0.1188
     32 C         137.7088  140.4483  161.4869 C.3     1  UNL1        0.0447
     33 C         138.2604  139.6468  162.6285 C.ar    1  UNL1        0.0088
     34 C         138.0500  140.1089  164.0400 C.ar    1  UNL1        0.0276
     35 C         138.6016  139.3073  165.1816 C.ar    1  UNL1        0.1400
     36 F         138.3912  139.7693  166.5931 F       1  UNL1       -0.2042
     37 C         139.3637  138.0438  164.9118 C.ar    1  UNL1        0.0319
     38 C         139.5741  137.5818  163.5003 C.ar    1  UNL1        0.0316
     39 C         139.0224  138.3833  162.3586 C.ar    1  UNL1        0.1363
     40 F         139.2328  137.9213  160.9471 F       1  UNL1       -0.2045
@<TRIPOS>UNITY_ATOM_ATTR
25 1
charge -1
@<TRIPOS>BOND
     1    21    22    1
     2    22    23    1
     3    22    20    1
     4    20    19    1
     5    19    13    1
     6    13    14   ar
     7    14    15   ar
     8    15    16   ar
     9    16    12    1
    10    12     8    1
    11     8     9   am
    12     9    10    2
    13     1     9    1
    14     1     2    1
    15     2     3    1
    16     3     4    1
    17     4     5    1
    18     5     6   am
    19     6     7    2
    20     6    27    1
    21    27    28    1
    22    28    29    1
    23    28    32    1
    24    32    33    1
    25    33    34   ar
    26    34    35   ar
    27    35    36    1
    28    35    37   ar
    29    37    38   ar
    30    38    39   ar
    31    39    40    1
    32    16    17   ar
    33    17    18   ar
    34    20    24    1
    35    24    25   ar
    36    24    26   ar
    37    18    13   ar
    38     5     1    1
    39    39    33   ar
    40     8    11    1
    41    29    30    1
    42    29    31    1
