@<TRIPOS>MOLECULE
*****
 31 34 0 0 0
SMALL
GASTEIGER

@<TRIPOS>ATOM
      1 C         139.6037  146.1397  155.7800 C.ar    1  UNL1        0.0248
      2 C         138.7094  145.0333  155.3046 C.ar    1  UNL1       -0.0001
      3 C         138.6859  143.7224  156.0334 C.ar    1  UNL1        0.0011
      4 C         139.5567  143.5181  157.2375 C.ar    1  UNL1        0.0147
      5 C         140.4510  144.6246  157.7129 C.ar    1  UNL1        0.0504
      6 C         140.4745  145.9354  156.9840 C.ar    1  UNL1        0.0145
      7 C         140.3089  146.5779  154.0394 C.3     1  UNL1        0.0601
      8 C         139.6273  147.4507  155.0512 C.3     1  UNL1        0.2159
      9 C         139.8876  148.4584  153.9710 C.3     1  UNL1        0.1807
     10 N         139.4580  149.8836  154.1557 N.ar    1  UNL1       -0.2390
     11 N         139.5783  151.0905  153.2731 N.ar    1  UNL1       -0.1673
     12 C         138.9628  152.2540  153.9925 C.ar    1  UNL1        0.1219
     13 C         138.4622  151.7661  155.3197 C.ar    1  UNL1        0.0487
     14 C         138.7682  150.3012  155.4206 C.ar    1  UNL1        0.1608
     15 C         138.5080  149.2934  156.5007 C.2     1  UNL1        0.3304
     16 N         137.8182  149.7109  157.7656 N.pl3   1  UNL1       -0.2452
     17 N         138.9375  147.8682  156.3160 N.2     1  UNL1       -0.0666
     18 H         137.5363  150.6464  157.8868 H       1  UNL1        0.2885
     19 H         137.6473  149.0495  158.4745 H       1  UNL1        0.2885
     20 N         141.3218  144.4201  158.9170 N.am    1  UNL1       -0.2791
     21 C         140.9098  144.9832  160.2448 C.2     1  UNL1        0.2672
     22 O         139.6270  145.7508  160.3686 O.2     1  UNL1       -0.2682
     23 H         142.1637  143.9163  158.8358 H       1  UNL1        0.1552
     24 C         141.7806  144.7788  161.4489 C.ar    1  UNL1        0.1348
     25 C         141.3103  145.2300  162.7999 C.ar    1  UNL1        0.0245
     26 C         142.1812  145.0255  164.0040 C.ar    1  UNL1        0.0135
     27 C         143.5222  144.3698  163.8572 C.ar    1  UNL1        0.0876
     28 C         143.9925  143.9186  162.5061 C.ar    1  UNL1        0.1092
     29 N         143.1217  144.1230  161.3020 N.ar    1  UNL1       -0.2385
     30 C         144.3931  144.1654  165.0613 C.1     1  UNL1        0.1020
     31 N         145.2640  143.9610  166.2654 N.1     1  UNL1       -0.1908
@<TRIPOS>BOND
     1     8     7    1
     2     8     1    1
     3     1     2   ar
     4     2     3   ar
     5     3     4   ar
     6     4     5   ar
     7     5    20    1
     8    20    21   am
     9    21    22    2
    10    21    24    1
    11    24    25   ar
    12    25    26   ar
    13    26    27   ar
    14    27    30    1
    15    30    31    3
    16    27    28   ar
    17    28    29   ar
    18     5     6   ar
    19     8     9    1
    20     9    10    1
    21    10    11   ar
    22    11    12   ar
    23    12    13   ar
    24    13    14   ar
    25    14    15    1
    26    15    16    1
    27    15    17    2
    28    17     8    1
    29     6     1   ar
    30    14    10   ar
    31    29    24   ar
    32    20    23    1
    33    16    18    1
    34    16    19    1
@<TRIPOS>MOLECULE
*****
 31 34 0 0 0
SMALL
GASTEIGER

@<TRIPOS>ATOM
      1 C         142.5110  137.2719  156.8542 C.ar    1  UNL1        0.0248
      2 C         143.1171  138.3463  156.0009 C.ar    1  UNL1       -0.0001
      3 C         143.5636  139.6360  156.6234 C.ar    1  UNL1        0.0011
      4 C         143.4038  139.8511  158.0993 C.ar    1  UNL1        0.0147
      5 C         142.7976  138.7766  158.9526 C.ar    1  UNL1        0.0504
      6 C         142.3512  137.4870  158.3299 C.ar    1  UNL1        0.0145
      7 C         141.2145  136.9503  155.4632 C.3     1  UNL1        0.0601
      8 C         142.0645  135.9822  156.2316 C.3     1  UNL1        0.2159
      9 C         141.3228  135.0288  155.3422 C.3     1  UNL1        0.1807
     10 N         141.5862  133.5552  155.4373 N.ar    1  UNL1       -0.2390
     11 N         141.0130  132.3833  154.6970 N.ar    1  UNL1       -0.1673
     12 C         141.6638  131.1388  155.2240 C.ar    1  UNL1        0.1219
     13 C         142.6392  131.5416  156.2900 C.ar    1  UNL1        0.0487
     14 C         142.5912  133.0350  156.4219 C.ar    1  UNL1        0.1608
     15 C         143.3329  133.9884  157.3112 C.2     1  UNL1        0.3304
     16 N         144.3379  133.4682  158.2958 N.pl3   1  UNL1       -0.2452
     17 N         143.0695  135.4620  157.2161 N.2     1  UNL1       -0.0666
     18 H         144.5108  132.5010  158.3582 H       1  UNL1        0.2885
     19 H         144.8246  134.0939  158.8795 H       1  UNL1        0.2885
     20 N         142.6378  138.9919  160.4284 N.am    1  UNL1       -0.2791
     21 C         143.5205  138.2572  161.3934 C.2     1  UNL1        0.2672
     22 O         144.5629  137.3073  160.8826 O.2     1  UNL1       -0.2682
     23 H         141.9537  139.6153  160.7637 H       1  UNL1        0.1552
     24 C         143.3607  138.4724  162.8692 C.ar    1  UNL1        0.1348
     25 C         144.4038  139.2325  163.6336 C.ar    1  UNL1        0.0245
     26 C         144.2440  139.4476  165.1095 C.ar    1  UNL1        0.0135
     27 C         143.0411  138.9029  165.8210 C.ar    1  UNL1        0.0876
     28 C         141.9980  138.1428  165.0566 C.ar    1  UNL1        0.1092
     29 N         142.1578  137.9276  163.5807 N.ar    1  UNL1       -0.2385
     30 C         142.8813  139.1181  167.2968 C.1     1  UNL1        0.1020
     31 N         142.7216  139.3333  168.7727 N.1     1  UNL1       -0.1908
@<TRIPOS>BOND
     1     8     7    1
     2     8     1    1
     3     1     2   ar
     4     2     3   ar
     5     3     4   ar
     6     4     5   ar
     7     5    20    1
     8    20    21   am
     9    21    22    2
    10    21    24    1
    11    24    25   ar
    12    25    26   ar
    13    26    27   ar
    14    27    30    1
    15    30    31    3
    16    27    28   ar
    17    28    29   ar
    18     5     6   ar
    19     8     9    1
    20     9    10    1
    21    10    11   ar
    22    11    12   ar
    23    12    13   ar
    24    13    14   ar
    25    14    15    1
    26    15    16    1
    27    15    17    2
    28    17     8    1
    29     6     1   ar
    30    14    10   ar
    31    29    24   ar
    32    20    23    1
    33    16    18    1
    34    16    19    1
@<TRIPOS>MOLECULE
*****
 31 34 0 0 0
SMALL
GASTEIGER

@<TRIPOS>ATOM
      1 C         142.6639  137.2091  156.4121 C.ar    1  UNL1        0.0248
      2 C         143.4734  138.4029  156.0006 C.ar    1  UNL1       -0.0001
      3 C         143.4523  139.6480  156.8370 C.ar    1  UNL1        0.0011
      4 C         142.6215  139.6991  158.0849 C.ar    1  UNL1        0.0147
      5 C         141.8119  138.5052  158.4964 C.ar    1  UNL1        0.0504
      6 C         141.8332  137.2602  157.6599 C.ar    1  UNL1        0.0145
      7 C         142.1488  136.9424  154.5730 C.3     1  UNL1        0.0601
      8 C         142.6851  135.9641  155.5757 C.3     1  UNL1        0.2159
      9 C         142.5200  135.0589  154.3910 C.3     1  UNL1        0.1807
     10 N         142.8838  133.6077  154.4996 N.ar    1  UNL1       -0.2390
     11 N         142.8295  132.4826  153.5091 N.ar    1  UNL1       -0.1673
     12 C         143.3249  131.2413  154.1901 C.ar    1  UNL1        0.1219
     13 C         143.6853  131.5992  155.6014 C.ar    1  UNL1        0.0487
     14 C         143.4127  133.0618  155.7927 C.ar    1  UNL1        0.1608
     15 C         143.5778  133.9670  156.9773 C.2     1  UNL1        0.3304
     16 N         144.1067  133.4211  158.2705 N.pl3   1  UNL1       -0.2452
     17 N         143.2140  135.4182  156.8688 N.2     1  UNL1       -0.0666
     18 H         144.3455  132.4687  158.3417 H       1  UNL1        0.2885
     19 H         144.2150  134.0152  159.0480 H       1  UNL1        0.2885
     20 N         140.9812  138.5563  159.7443 N.am    1  UNL1       -0.2791
     21 C         141.5568  138.0889  161.0482 C.2     1  UNL1        0.2672
     22 O         142.9632  137.5703  161.1043 O.2     1  UNL1       -0.2682
     23 H         140.0582  138.8967  159.7075 H       1  UNL1        0.1552
     24 C         140.7261  138.1401  162.2961 C.ar    1  UNL1        0.1348
     25 C         141.0897  137.2866  163.4747 C.ar    1  UNL1        0.0245
     26 C         140.2589  137.3378  164.7226 C.ar    1  UNL1        0.0135
     27 C         139.0645  138.2425  164.7918 C.ar    1  UNL1        0.0876
     28 C         138.7008  139.0961  163.6131 C.ar    1  UNL1        0.1092
     29 N         139.5316  139.0448  162.3653 N.ar    1  UNL1       -0.2385
     30 C         138.2337  138.2937  166.0397 C.1     1  UNL1        0.1020
     31 N         137.4030  138.3449  167.2876 N.1     1  UNL1       -0.1908
@<TRIPOS>BOND
     1     8     7    1
     2     8     1    1
     3     1     2   ar
     4     2     3   ar
     5     3     4   ar
     6     4     5   ar
     7     5    20    1
     8    20    21   am
     9    21    22    2
    10    21    24    1
    11    24    25   ar
    12    25    26   ar
    13    26    27   ar
    14    27    30    1
    15    30    31    3
    16    27    28   ar
    17    28    29   ar
    18     5     6   ar
    19     8     9    1
    20     9    10    1
    21    10    11   ar
    22    11    12   ar
    23    12    13   ar
    24    13    14   ar
    25    14    15    1
    26    15    16    1
    27    15    17    2
    28    17     8    1
    29     6     1   ar
    30    14    10   ar
    31    29    24   ar
    32    20    23    1
    33    16    18    1
    34    16    19    1
@<TRIPOS>MOLECULE
*****
 31 34 0 0 0
SMALL
GASTEIGER

@<TRIPOS>ATOM
      1 C         142.1419  142.5972  165.4407 C.ar    1  UNL1        0.0248
      2 C         143.5488  142.7845  165.9257 C.ar    1  UNL1       -0.0001
      3 C         144.5058  143.6327  165.1414 C.ar    1  UNL1        0.0011
      4 C         144.0556  144.2934  163.8722 C.ar    1  UNL1        0.0147
      5 C         142.6486  144.1060  163.3873 C.ar    1  UNL1        0.0504
      6 C         141.6917  143.2578  164.1716 C.ar    1  UNL1        0.0145
      7 C         141.7853  142.5592  167.3355 C.3     1  UNL1        0.0601
      8 C         141.1849  141.7490  166.2249 C.3     1  UNL1        0.2159
      9 C         140.4365  141.1823  167.3949 C.3     1  UNL1        0.1807
     10 N         139.4200  140.1000  167.1819 N.ar    1  UNL1       -0.2390
     11 N         138.5338  139.3538  168.1347 N.ar    1  UNL1       -0.1673
     12 C         137.7180  138.3771  167.3407 C.ar    1  UNL1        0.1219
     13 C         138.1000  138.5196  165.8972 C.ar    1  UNL1        0.0487
     14 C         139.1519  139.5844  165.7991 C.ar    1  UNL1        0.1608
     15 C         139.9003  140.1512  164.6292 C.2     1  UNL1        0.3304
     16 N         139.6323  139.6356  163.2463 N.pl3   1  UNL1       -0.2452
     17 N         140.9168  141.2335  164.8421 N.2     1  UNL1       -0.0666
     18 H         138.9651  138.9253  163.1065 H       1  UNL1        0.2885
     19 H         140.1235  140.0076  162.4784 H       1  UNL1        0.2885
     20 N         142.1985  144.7667  162.1181 N.am    1  UNL1       -0.2791
     21 C         142.1886  143.9936  160.8328 C.2     1  UNL1        0.2672
     22 O         142.6288  142.5598  160.8165 O.2     1  UNL1       -0.2682
     23 H         141.9097  145.7078  162.1288 H       1  UNL1        0.1552
     24 C         141.7386  144.6544  159.5636 C.ar    1  UNL1        0.1348
     25 C         140.4248  145.3770  159.5192 C.ar    1  UNL1        0.0245
     26 C         139.9749  146.0377  158.2499 C.ar    1  UNL1        0.0135
     27 C         140.8385  145.9758  157.0251 C.ar    1  UNL1        0.0876
     28 C         142.1523  145.2532  157.0695 C.ar    1  UNL1        0.1092
     29 N         142.6023  144.5925  158.3387 N.ar    1  UNL1       -0.2385
     30 C         140.3885  146.6366  155.7558 C.1     1  UNL1        0.1020
     31 N         139.9386  147.2973  154.4866 N.1     1  UNL1       -0.1908
@<TRIPOS>BOND
     1     8     7    1
     2     8     1    1
     3     1     2   ar
     4     2     3   ar
     5     3     4   ar
     6     4     5   ar
     7     5    20    1
     8    20    21   am
     9    21    22    2
    10    21    24    1
    11    24    25   ar
    12    25    26   ar
    13    26    27   ar
    14    27    30    1
    15    30    31    3
    16    27    28   ar
    17    28    29   ar
    18     5     6   ar
    19     8     9    1
    20     9    10    1
    21    10    11   ar
    22    11    12   ar
    23    12    13   ar
    24    13    14   ar
    25    14    15    1
    26    15    16    1
    27    15    17    2
    28    17     8    1
    29     6     1   ar
    30    14    10   ar
    31    29    24   ar
    32    20    23    1
    33    16    18    1
    34    16    19    1
@<TRIPOS>MOLECULE
*****
 31 34 0 0 0
SMALL
GASTEIGER

@<TRIPOS>ATOM
      1 C         142.1292  142.5570  165.5727 C.ar    1  UNL1        0.0248
      2 C         143.5279  142.7699  166.0708 C.ar    1  UNL1       -0.0001
      3 C         144.4775  143.6331  165.2941 C.ar    1  UNL1        0.0011
      4 C         144.0282  144.2834  164.0192 C.ar    1  UNL1        0.0147
      5 C         142.6294  144.0705  163.5210 C.ar    1  UNL1        0.0504
      6 C         141.6800  143.2072  164.2978 C.ar    1  UNL1        0.0145
      7 C         141.1537  140.9854  165.0274 C.3     1  UNL1        0.0601
      8 C         141.1796  141.6938  166.3494 C.3     1  UNL1        0.2159
      9 C         140.2211  140.5845  166.6669 C.3     1  UNL1        0.1807
     10 N         139.6182  140.4835  168.0367 N.ar    1  UNL1       -0.2390
     11 N         138.6510  139.5074  168.6380 N.ar    1  UNL1       -0.1673
     12 C         138.4089  139.9122  170.0619 C.ar    1  UNL1        0.1219
     13 C         139.2265  141.1385  170.3406 C.ar    1  UNL1        0.0487
     14 C         139.9740  141.4916  169.0889 C.ar    1  UNL1        0.1608
     15 C         140.9325  142.6008  168.7714 C.2     1  UNL1        0.3304
     16 N         141.2882  143.6089  169.8236 N.pl3   1  UNL1       -0.2452
     17 N         141.5353  142.7019  167.4016 N.2     1  UNL1       -0.0666
     18 H         140.8926  143.5426  170.7226 H       1  UNL1        0.2885
     19 H         141.9173  144.3369  169.6152 H       1  UNL1        0.2885
     20 N         142.1803  144.7207  162.2462 N.am    1  UNL1       -0.2791
     21 C         142.1868  143.9420  160.9642 C.2     1  UNL1        0.2672
     22 O         142.6426  142.5129  160.9570 O.2     1  UNL1       -0.2682
     23 H         141.8811  145.6587  162.2509 H       1  UNL1        0.1552
     24 C         141.7376  144.5923  159.6893 C.ar    1  UNL1        0.1348
     25 C         140.4255  145.3174  159.6390 C.ar    1  UNL1        0.0245
     26 C         139.9764  145.9677  158.3641 C.ar    1  UNL1        0.0135
     27 C         140.8393  145.8929  157.1395 C.ar    1  UNL1        0.0876
     28 C         142.1515  145.1677  157.1897 C.ar    1  UNL1        0.1092
     29 N         142.6006  144.5175  158.4647 N.ar    1  UNL1       -0.2385
     30 C         140.3902  146.5431  155.8645 C.1     1  UNL1        0.1020
     31 N         139.9410  147.1933  154.5896 N.1     1  UNL1       -0.1908
@<TRIPOS>BOND
     1     8     7    1
     2     8     1    1
     3     1     2   ar
     4     2     3   ar
     5     3     4   ar
     6     4     5   ar
     7     5    20    1
     8    20    21   am
     9    21    22    2
    10    21    24    1
    11    24    25   ar
    12    25    26   ar
    13    26    27   ar
    14    27    30    1
    15    30    31    3
    16    27    28   ar
    17    28    29   ar
    18     5     6   ar
    19     8     9    1
    20     9    10    1
    21    10    11   ar
    22    11    12   ar
    23    12    13   ar
    24    13    14   ar
    25    14    15    1
    26    15    16    1
    27    15    17    2
    28    17     8    1
    29     6     1   ar
    30    14    10   ar
    31    29    24   ar
    32    20    23    1
    33    16    18    1
    34    16    19    1
@<TRIPOS>MOLECULE
*****
 31 34 0 0 0
SMALL
GASTEIGER

@<TRIPOS>ATOM
      1 C         139.3647  139.2765  165.4363 C.ar    1  UNL1        0.0248
      2 C         138.9642  137.8741  165.0861 C.ar    1  UNL1       -0.0001
      3 C         138.8999  137.4492  163.6489 C.ar    1  UNL1        0.0011
      4 C         139.2362  138.4268  162.5621 C.ar    1  UNL1        0.0147
      5 C         139.6367  139.8293  162.9124 C.ar    1  UNL1        0.0504
      6 C         139.7009  140.2541  164.3496 C.ar    1  UNL1        0.0145
      7 C         138.1225  138.9643  166.8780 C.3     1  UNL1        0.0601
      8 C         139.4289  139.7014  166.8735 C.3     1  UNL1        0.2159
      9 C         139.0394  139.8703  168.3123 C.3     1  UNL1        0.1807
     10 N         139.9340  140.6287  169.2474 N.ar    1  UNL1       -0.2390
     11 N         139.8145  140.9557  170.7064 N.ar    1  UNL1       -0.1673
     12 C         141.0247  141.7474  171.1046 C.ar    1  UNL1        0.1219
     13 C         141.8922  141.9097  169.8916 C.ar    1  UNL1        0.0487
     14 C         141.2180  141.2183  168.7438 C.ar    1  UNL1        0.1608
     15 C         141.6075  141.0495  167.3051 C.2     1  UNL1        0.3304
     16 N         142.8916  141.6390  166.8015 N.pl3   1  UNL1       -0.2452
     17 N         140.7129  140.2910  166.3700 N.2     1  UNL1       -0.0666
     18 H         143.4787  142.1368  167.4153 H       1  UNL1        0.2885
     19 H         143.1472  141.5282  165.8573 H       1  UNL1        0.2885
     20 N         139.9729  140.8068  161.8256 N.am    1  UNL1       -0.2791
     21 C         138.9217  141.7428  161.3070 C.2     1  UNL1        0.2672
     22 O         137.5341  141.7012  161.8753 O.2     1  UNL1       -0.2682
     23 H         140.8836  140.8342  161.4526 H       1  UNL1        0.1552
     24 C         139.2579  142.7203  160.2201 C.ar    1  UNL1        0.1348
     25 C         138.9128  142.4052  158.7948 C.ar    1  UNL1        0.0245
     26 C         139.2491  143.3829  157.7080 C.ar    1  UNL1        0.0135
     27 C         139.9305  144.6755  158.0464 C.ar    1  UNL1        0.0876
     28 C         140.2756  144.9907  159.4718 C.ar    1  UNL1        0.1092
     29 N         139.9394  144.0131  160.5586 N.ar    1  UNL1       -0.2385
     30 C         140.2668  145.6532  156.9596 C.1     1  UNL1        0.1020
     31 N         140.6030  146.6308  155.8727 N.1     1  UNL1       -0.1908
@<TRIPOS>BOND
     1     8     7    1
     2     8     1    1
     3     1     2   ar
     4     2     3   ar
     5     3     4   ar
     6     4     5   ar
     7     5    20    1
     8    20    21   am
     9    21    22    2
    10    21    24    1
    11    24    25   ar
    12    25    26   ar
    13    26    27   ar
    14    27    30    1
    15    30    31    3
    16    27    28   ar
    17    28    29   ar
    18     5     6   ar
    19     8     9    1
    20     9    10    1
    21    10    11   ar
    22    11    12   ar
    23    12    13   ar
    24    13    14   ar
    25    14    15    1
    26    15    16    1
    27    15    17    2
    28    17     8    1
    29     6     1   ar
    30    14    10   ar
    31    29    24   ar
    32    20    23    1
    33    16    18    1
    34    16    19    1
@<TRIPOS>MOLECULE
*****
 31 34 0 0 0
SMALL
GASTEIGER

@<TRIPOS>ATOM
      1 C         140.5134  143.0718  165.3765 C.ar    1  UNL1        0.0248
      2 C         139.3025  143.8194  165.8505 C.ar    1  UNL1       -0.0001
      3 C         138.6321  144.8113  164.9466 C.ar    1  UNL1        0.0011
      4 C         139.1727  145.0554  163.5689 C.ar    1  UNL1        0.0147
      5 C         140.3837  144.3077  163.0950 C.ar    1  UNL1        0.0504
      6 C         141.0540  143.3159  163.9989 C.ar    1  UNL1        0.0145
      7 C         141.5736  141.5200  164.9444 C.3     1  UNL1        0.0601
      8 C         141.1838  142.0799  166.2804 C.3     1  UNL1        0.2159
      9 C         141.9896  140.8936  166.7201 C.3     1  UNL1        0.1807
     10 N         142.1728  140.6116  168.1820 N.ar    1  UNL1       -0.2390
     11 N         142.9082  139.5260  168.9103 N.ar    1  UNL1       -0.1673
     12 C         142.7401  139.7594  170.3824 C.ar    1  UNL1        0.1219
     13 C         141.9008  140.9893  170.5640 C.ar    1  UNL1        0.0487
     14 C         141.5502  141.5160  169.2040 C.ar    1  UNL1        0.1608
     15 C         140.7444  142.7023  168.7641 C.2     1  UNL1        0.3304
     16 N         140.1218  143.6067  169.7861 N.pl3   1  UNL1       -0.2452
     17 N         140.5613  142.9842  167.3023 N.2     1  UNL1       -0.0666
     18 H         140.2421  143.4217  170.7456 H       1  UNL1        0.2885
     19 H         139.5930  144.3853  169.4975 H       1  UNL1        0.2885
     20 N         140.9242  144.5519  161.7173 N.am    1  UNL1       -0.2791
     21 C         140.1247  144.1453  160.5150 C.2     1  UNL1        0.2672
     22 O         138.7846  143.4946  160.6903 O.2     1  UNL1       -0.2682
     23 H         141.8037  144.9789  161.6021 H       1  UNL1        0.1552
     24 C         140.6652  144.3895  159.1372 C.ar    1  UNL1        0.1348
     25 C         140.2292  143.5199  157.9955 C.ar    1  UNL1        0.0245
     26 C         140.7698  143.7641  156.6177 C.ar    1  UNL1        0.0135
     27 C         141.7464  144.8779  156.3817 C.ar    1  UNL1        0.0876
     28 C         142.1824  145.7476  157.5235 C.ar    1  UNL1        0.1092
     29 N         141.6418  145.5034  158.9012 N.ar    1  UNL1       -0.2385
     30 C         142.2869  145.1222  155.0040 C.1     1  UNL1        0.1020
     31 N         142.8275  145.3664  153.6262 N.1     1  UNL1       -0.1908
@<TRIPOS>BOND
     1     8     7    1
     2     8     1    1
     3     1     2   ar
     4     2     3   ar
     5     3     4   ar
     6     4     5   ar
     7     5    20    1
     8    20    21   am
     9    21    22    2
    10    21    24    1
    11    24    25   ar
    12    25    26   ar
    13    26    27   ar
    14    27    30    1
    15    30    31    3
    16    27    28   ar
    17    28    29   ar
    18     5     6   ar
    19     8     9    1
    20     9    10    1
    21    10    11   ar
    22    11    12   ar
    23    12    13   ar
    24    13    14   ar
    25    14    15    1
    26    15    16    1
    27    15    17    2
    28    17     8    1
    29     6     1   ar
    30    14    10   ar
    31    29    24   ar
    32    20    23    1
    33    16    18    1
    34    16    19    1
@<TRIPOS>MOLECULE
*****
 31 34 0 0 0
SMALL
GASTEIGER

@<TRIPOS>ATOM
      1 C         140.1807  139.0959  165.0858 C.ar    1  UNL1        0.0248
      2 C         140.7891  137.7327  164.9387 C.ar    1  UNL1       -0.0001
      3 C         141.0840  137.1864  163.5732 C.ar    1  UNL1        0.0011
      4 C         140.7705  138.0032  162.3548 C.ar    1  UNL1        0.0147
      5 C         140.1621  139.3664  162.5019 C.ar    1  UNL1        0.0504
      6 C         139.8672  139.9127  163.8675 C.ar    1  UNL1        0.0145
      7 C         138.7124  138.7237  166.2793 C.3     1  UNL1        0.0601
      8 C         139.8858  139.6423  166.4513 C.3     1  UNL1        0.2159
      9 C         139.1832  139.8696  167.7570 C.3     1  UNL1        0.1807
     10 N         139.7566  140.8257  168.7606 N.ar    1  UNL1       -0.2390
     11 N         139.2914  141.2503  170.1219 N.ar    1  UNL1       -0.1673
     12 C         140.2797  142.2415  170.6611 C.ar    1  UNL1        0.1219
     13 C         141.3556  142.4295  169.6330 C.ar    1  UNL1        0.0487
     14 C         141.0323  141.5545  168.4584 C.ar    1  UNL1        0.1608
     15 C         141.7348  141.3272  167.1527 C.2     1  UNL1        0.3304
     16 N         143.0105  142.0559  166.8505 N.pl3   1  UNL1       -0.2452
     17 N         141.1614  140.3710  166.1492 N.2     1  UNL1       -0.0666
     18 H         143.3868  142.6835  167.5092 H       1  UNL1        0.2885
     19 H         143.4716  141.9067  165.9935 H       1  UNL1        0.2885
     20 N         139.8487  140.1832  161.2836 N.am    1  UNL1       -0.2791
     21 C         138.5332  140.0116  160.5836 C.2     1  UNL1        0.2672
     22 O         137.5311  139.0232  161.1020 O.2     1  UNL1       -0.2682
     23 H         140.5064  140.8319  160.9433 H       1  UNL1        0.1552
     24 C         138.2197  140.8284  159.3651 C.ar    1  UNL1        0.1348
     25 C         138.8048  142.2009  159.2114 C.ar    1  UNL1        0.0245
     26 C         138.4913  143.0177  157.9929 C.ar    1  UNL1        0.0135
     27 C         137.5927  142.4619  156.9282 C.ar    1  UNL1        0.0876
     28 C         137.0076  141.0893  157.0819 C.ar    1  UNL1        0.1092
     29 N         137.3211  140.2725  158.3004 N.ar    1  UNL1       -0.2385
     30 C         137.2792  143.2786  155.7097 C.1     1  UNL1        0.1020
     31 N         136.9656  144.0953  154.4912 N.1     1  UNL1       -0.1908
@<TRIPOS>BOND
     1     8     7    1
     2     8     1    1
     3     1     2   ar
     4     2     3   ar
     5     3     4   ar
     6     4     5   ar
     7     5    20    1
     8    20    21   am
     9    21    22    2
    10    21    24    1
    11    24    25   ar
    12    25    26   ar
    13    26    27   ar
    14    27    30    1
    15    30    31    3
    16    27    28   ar
    17    28    29   ar
    18     5     6   ar
    19     8     9    1
    20     9    10    1
    21    10    11   ar
    22    11    12   ar
    23    12    13   ar
    24    13    14   ar
    25    14    15    1
    26    15    16    1
    27    15    17    2
    28    17     8    1
    29     6     1   ar
    30    14    10   ar
    31    29    24   ar
    32    20    23    1
    33    16    18    1
    34    16    19    1
@<TRIPOS>MOLECULE
*****
 31 34 0 0 0
SMALL
GASTEIGER

@<TRIPOS>ATOM
      1 C         135.7403  140.5497  155.6555 C.ar    1  UNL1        0.0248
      2 C         136.4390  139.9138  154.4904 C.ar    1  UNL1       -0.0001
      3 C         137.9316  139.7647  154.5013 C.ar    1  UNL1        0.0011
      4 C         138.7254  140.2516  155.6773 C.ar    1  UNL1        0.0147
      5 C         138.0266  140.8875  156.8423 C.ar    1  UNL1        0.0504
      6 C         136.5341  141.0366  156.8314 C.ar    1  UNL1        0.0145
      7 C         134.6024  141.5425  154.4561 C.3     1  UNL1        0.0601
      8 C         134.2477  140.6988  155.6446 C.3     1  UNL1        0.2159
      9 C         132.8784  141.1410  155.2210 C.3     1  UNL1        0.1807
     10 N         131.6727  140.6876  155.9896 N.ar    1  UNL1       -0.2390
     11 N         130.2082  140.9582  155.8106 N.ar    1  UNL1       -0.1673
     12 C         129.4667  140.2300  156.8922 C.ar    1  UNL1        0.1219
     13 C         130.4730  139.5093  157.7396 C.ar    1  UNL1        0.0487
     14 C         131.8363  139.7922  157.1818 C.ar    1  UNL1        0.1608
     15 C         133.2057  139.3501  157.6054 C.2     1  UNL1        0.3304
     16 N         133.3693  138.4546  158.7976 N.pl3   1  UNL1       -0.2452
     17 N         134.4114  139.8034  156.8368 N.2     1  UNL1       -0.0666
     18 H         132.5780  138.1571  159.3021 H       1  UNL1        0.2885
     19 H         134.2681  138.1644  159.0757 H       1  UNL1        0.2885
     20 N         138.8204  141.3743  158.0182 N.am    1  UNL1       -0.2791
     21 C         139.2944  142.7967  158.0661 C.2     1  UNL1        0.2672
     22 O         138.9745  143.7323  156.9382 O.2     1  UNL1       -0.2682
     23 H         139.0304  140.7603  158.7586 H       1  UNL1        0.1552
     24 C         140.0882  143.2835  159.2421 C.ar    1  UNL1        0.1348
     25 C         141.5655  143.0315  159.3058 C.ar    1  UNL1        0.0245
     26 C         142.3593  143.5184  160.4818 C.ar    1  UNL1        0.0135
     27 C         141.6759  144.2573  161.5940 C.ar    1  UNL1        0.0876
     28 C         140.1985  144.5093  161.5302 C.ar    1  UNL1        0.1092
     29 N         139.4047  144.0224  160.3543 N.ar    1  UNL1       -0.2385
     30 C         142.4696  144.7441  162.7699 C.1     1  UNL1        0.1020
     31 N         143.2634  145.2310  163.9459 N.1     1  UNL1       -0.1908
@<TRIPOS>BOND
     1     8     7    1
     2     8     1    1
     3     1     2   ar
     4     2     3   ar
     5     3     4   ar
     6     4     5   ar
     7     5    20    1
     8    20    21   am
     9    21    22    2
    10    21    24    1
    11    24    25   ar
    12    25    26   ar
    13    26    27   ar
    14    27    30    1
    15    30    31    3
    16    27    28   ar
    17    28    29   ar
    18     5     6   ar
    19     8     9    1
    20     9    10    1
    21    10    11   ar
    22    11    12   ar
    23    12    13   ar
    24    13    14   ar
    25    14    15    1
    26    15    16    1
    27    15    17    2
    28    17     8    1
    29     6     1   ar
    30    14    10   ar
    31    29    24   ar
    32    20    23    1
    33    16    18    1
    34    16    19    1
