@<TRIPOS>MOLECULE
*****
 36 40 0 0 0
SMALL
GASTEIGER

@<TRIPOS>ATOM
      1 C         140.4488  138.8585  160.5978 C.ar    1  UNL1        0.1651
      2 N         140.3736  140.3320  160.8686 N.ar    1  UNL1       -0.2121
      3 C         139.8642  140.8267  162.1899 C.ar    1  UNL1        0.1318
      4 C         139.4300  139.8479  163.2404 C.ar    1  UNL1        0.0491
      5 C         138.9207  140.3425  164.5617 C.ar    1  UNL1        0.0041
      6 C         138.4865  139.3638  165.6121 C.ar    1  UNL1        0.0002
      7 C         138.5616  137.8904  165.3413 C.ar    1  UNL1        0.0015
      8 C         139.0710  137.3958  164.0200 C.ar    1  UNL1        0.0192
      9 C         139.5052  138.3745  162.9695 C.ar    1  UNL1        0.0856
     10 N         140.0146  137.8798  161.6483 N.ar    1  UNL1       -0.2264
     11 C         140.5025  137.3952  156.9092 C.ar    1  UNL1        0.0698
     12 C         141.9769  137.3745  156.6339 C.ar    1  UNL1        0.1135
     13 N         142.9419  137.8484  157.6799 N.ar    1  UNL1       -0.2409
     14 C         142.4325  138.3431  159.0012 C.ar    1  UNL1        0.1020
     15 C         140.9582  138.3638  159.2765 C.ar    1  UNL1        0.0562
     16 C         139.9931  137.8899  158.2304 C.ar    1  UNL1        0.0209
     17 C         137.8474  137.4419  153.9599 C.3     1  UNL1        0.0949
     18 C         138.8124  137.9159  155.0059 C.2     1  UNL1        0.2266
     19 O         139.0522  139.3845  155.1947 O.2     1  UNL1       -0.2748
     20 N         139.5375  136.9213  155.8631 N.am    1  UNL1       -0.2827
     21 H         139.3801  135.9574  155.7392 H       1  UNL1        0.1549
     22 C         138.8455  141.8160  164.8325 C.ar    1  UNL1        0.0001
     23 C         137.6846  142.6148  164.3184 C.ar    1  UNL1        0.0000
     24 C         137.6094  144.0883  164.5892 C.ar    1  UNL1        0.0000
     25 C         138.6952  144.7629  165.3741 C.ar    1  UNL1        0.0000
     26 C         139.8561  143.9641  165.8881 C.ar    1  UNL1        0.0000
     27 C         139.9312  142.4907  165.6173 C.ar    1  UNL1        0.0000
     28 N         139.7891  142.3001  162.4607 N.pl3   1  UNL1       -0.3131
     29 H         139.0059  142.6761  162.9238 H       1  UNL1        0.1485
     30 C         140.9072  143.2006  162.0259 C.3     1  UNL1        0.1348
     31 C         142.0616  143.4614  162.9474 C.ar    1  UNL1        0.0788
     32 C         142.4381  144.8704  163.2977 C.ar    1  UNL1        0.0165
     33 C         143.5927  145.1313  164.2192 C.ar    1  UNL1        0.0029
     34 C         144.3706  143.9830  164.7904 C.ar    1  UNL1        0.0207
     35 C         143.9941  142.5739  164.4400 C.ar    1  UNL1        0.0985
     36 N         142.8396  142.3131  163.5185 N.ar    1  UNL1       -0.2464
@<TRIPOS>BOND
     1    17    18    1
     2    18    19    2
     3    18    20   am
     4    20    11    1
     5    11    12   ar
     6    12    13   ar
     7    13    14   ar
     8    14    15   ar
     9    15     1    1
    10     1     2   ar
    11     2     3   ar
    12     3    28    1
    13    28    30    1
    14    30    31    1
    15    31    32   ar
    16    32    33   ar
    17    33    34   ar
    18    34    35   ar
    19    35    36   ar
    20     3     4   ar
    21     4     5   ar
    22     5    22    1
    23    22    23   ar
    24    23    24   ar
    25    24    25   ar
    26    25    26   ar
    27    26    27   ar
    28     5     6   ar
    29     6     7   ar
    30     7     8   ar
    31     8     9   ar
    32     9    10   ar
    33    15    16   ar
    34    16    11   ar
    35    10     1   ar
    36    36    31   ar
    37     9     4   ar
    38    27    22   ar
    39    20    21    1
    40    28    29    1
@<TRIPOS>MOLECULE
*****
 36 40 0 0 0
SMALL
GASTEIGER

@<TRIPOS>ATOM
      1 C         139.3566  139.9281  158.9889 C.ar    1  UNL1        0.1651
      2 N         138.5081  140.0824  160.2163 N.ar    1  UNL1       -0.2121
      3 C         139.0422  139.6653  161.5545 C.ar    1  UNL1        0.1318
      4 C         140.4247  139.0938  161.6653 C.ar    1  UNL1        0.0491
      5 C         140.9587  138.6767  163.0035 C.ar    1  UNL1        0.0041
      6 C         142.3411  138.1053  163.1144 C.ar    1  UNL1        0.0002
      7 C         143.1895  137.9510  161.8871 C.ar    1  UNL1        0.0015
      8 C         142.6555  138.3681  160.5489 C.ar    1  UNL1        0.0192
      9 C         141.2731  138.9396  160.4380 C.ar    1  UNL1        0.0856
     10 N         140.7390  139.3567  159.0998 N.ar    1  UNL1       -0.2264
     11 C         136.8586  141.1950  156.1773 C.ar    1  UNL1        0.0698
     12 C         137.7545  141.1796  154.9743 C.ar    1  UNL1        0.1135
     13 N         139.1844  140.7471  155.1095 N.ar    1  UNL1       -0.2409
     14 C         139.7184  140.3299  156.4478 C.ar    1  UNL1        0.1020
     15 C         138.8226  140.3453  157.6507 C.ar    1  UNL1        0.0562
     16 C         137.3926  140.7778  157.5155 C.ar    1  UNL1        0.0209
     17 C         132.9203  141.0355  155.7142 C.3     1  UNL1        0.0949
     18 C         134.3502  140.6029  155.8495 C.2     1  UNL1        0.2266
     19 O         134.7016  139.1458  155.7921 O.2     1  UNL1       -0.2748
     20 N         135.4287  141.6275  156.0421 N.am    1  UNL1       -0.2827
     21 H         135.1981  142.5838  156.0797 H       1  UNL1        0.1549
     22 C         140.1102  138.8310  164.2309 C.ar    1  UNL1        0.0001
     23 C         140.2105  140.0768  165.0602 C.ar    1  UNL1        0.0000
     24 C         139.3620  140.2311  166.2876 C.ar    1  UNL1        0.0000
     25 C         138.4133  139.1395  166.6856 C.ar    1  UNL1        0.0000
     26 C         138.3131  137.8936  165.8562 C.ar    1  UNL1        0.0000
     27 C         139.1615  137.7394  164.6289 C.ar    1  UNL1        0.0000
     28 N         138.1938  139.8195  162.7818 N.pl3   1  UNL1       -0.3131
     29 H         138.2125  139.1289  163.4832 H       1  UNL1        0.1485
     30 C         137.3168  141.0261  162.9406 C.3     1  UNL1        0.1348
     31 C         137.9287  142.3660  163.2236 C.ar    1  UNL1        0.0788
     32 C         137.8023  142.9750  164.5885 C.ar    1  UNL1        0.0165
     33 C         138.4142  144.3150  164.8715 C.ar    1  UNL1        0.0029
     34 C         139.1525  145.0460  163.7896 C.ar    1  UNL1        0.0207
     35 C         139.2789  144.4369  162.4246 C.ar    1  UNL1        0.0985
     36 N         138.6670  143.0970  162.1416 N.ar    1  UNL1       -0.2464
@<TRIPOS>BOND
     1    17    18    1
     2    18    19    2
     3    18    20   am
     4    20    11    1
     5    11    12   ar
     6    12    13   ar
     7    13    14   ar
     8    14    15   ar
     9    15     1    1
    10     1     2   ar
    11     2     3   ar
    12     3    28    1
    13    28    30    1
    14    30    31    1
    15    31    32   ar
    16    32    33   ar
    17    33    34   ar
    18    34    35   ar
    19    35    36   ar
    20     3     4   ar
    21     4     5   ar
    22     5    22    1
    23    22    23   ar
    24    23    24   ar
    25    24    25   ar
    26    25    26   ar
    27    26    27   ar
    28     5     6   ar
    29     6     7   ar
    30     7     8   ar
    31     8     9   ar
    32     9    10   ar
    33    15    16   ar
    34    16    11   ar
    35    10     1   ar
    36    36    31   ar
    37     9     4   ar
    38    27    22   ar
    39    20    21    1
    40    28    29    1
@<TRIPOS>MOLECULE
*****
 36 40 0 0 0
SMALL
GASTEIGER

@<TRIPOS>ATOM
      1 C         142.8528  141.0465  160.6449 C.ar    1  UNL1        0.1651
      2 N         141.4626  140.7992  161.1513 N.ar    1  UNL1       -0.2121
      3 C         141.2553  140.1906  162.5065 C.ar    1  UNL1        0.1318
      4 C         142.4382  139.8293  163.3553 C.ar    1  UNL1        0.0491
      5 C         142.2309  139.2207  164.7105 C.ar    1  UNL1        0.0041
      6 C         143.4137  138.8594  165.5593 C.ar    1  UNL1        0.0002
      7 C         144.8037  139.1067  165.0529 C.ar    1  UNL1        0.0015
      8 C         145.0110  139.7153  163.6976 C.ar    1  UNL1        0.0192
      9 C         143.8283  140.0766  162.8489 C.ar    1  UNL1        0.0856
     10 N         144.0356  140.6852  161.4936 N.ar    1  UNL1       -0.2264
     11 C         144.6569  142.5366  157.4394 C.ar    1  UNL1        0.0698
     12 C         143.4747  142.8724  156.5792 C.ar    1  UNL1        0.1135
     13 N         142.0853  142.5996  157.0743 N.ar    1  UNL1       -0.2409
     14 C         141.8780  141.9909  158.4295 C.ar    1  UNL1        0.1020
     15 C         143.0601  141.6551  159.2896 C.ar    1  UNL1        0.0562
     16 C         144.4496  141.9280  158.7946 C.ar    1  UNL1        0.0209
     17 C         148.1327  142.0783  155.5796 C.3     1  UNL1        0.0949
     18 C         146.7432  141.8054  156.0747 C.2     1  UNL1        0.2266
     19 O         146.0509  140.5286  155.7002 O.2     1  UNL1       -0.2748
     20 N         146.0462  142.8094  156.9443 N.am    1  UNL1       -0.2827
     21 H         146.5007  143.6474  157.1901 H       1  UNL1        0.1549
     22 C         140.8408  138.9734  165.2169 C.ar    1  UNL1        0.0001
     23 C         140.1630  139.9976  166.0781 C.ar    1  UNL1        0.0000
     24 C         138.7728  139.7503  166.5845 C.ar    1  UNL1        0.0000
     25 C         138.0605  138.4787  166.2297 C.ar    1  UNL1        0.0000
     26 C         138.7384  137.4545  165.3686 C.ar    1  UNL1        0.0000
     27 C         140.1285  137.7018  164.8622 C.ar    1  UNL1        0.0000
     28 N         139.8653  139.9433  163.0129 N.pl3   1  UNL1       -0.3131
     29 H         139.6549  139.1047  163.4839 H       1  UNL1        0.1485
     30 C         138.7957  140.9737  162.8019 C.3     1  UNL1        0.1348
     31 C         138.8621  142.2835  163.5298 C.ar    1  UNL1        0.0788
     32 C         137.6666  142.7829  164.2856 C.ar    1  UNL1        0.0165
     33 C         137.7329  144.0928  165.0136 C.ar    1  UNL1        0.0029
     34 C         138.9948  144.9033  164.9857 C.ar    1  UNL1        0.0207
     35 C         140.1904  144.4038  164.2298 C.ar    1  UNL1        0.0985
     36 N         140.1240  143.0940  163.5019 N.ar    1  UNL1       -0.2464
@<TRIPOS>BOND
     1    17    18    1
     2    18    19    2
     3    18    20   am
     4    20    11    1
     5    11    12   ar
     6    12    13   ar
     7    13    14   ar
     8    14    15   ar
     9    15     1    1
    10     1     2   ar
    11     2     3   ar
    12     3    28    1
    13    28    30    1
    14    30    31    1
    15    31    32   ar
    16    32    33   ar
    17    33    34   ar
    18    34    35   ar
    19    35    36   ar
    20     3     4   ar
    21     4     5   ar
    22     5    22    1
    23    22    23   ar
    24    23    24   ar
    25    24    25   ar
    26    25    26   ar
    27    26    27   ar
    28     5     6   ar
    29     6     7   ar
    30     7     8   ar
    31     8     9   ar
    32     9    10   ar
    33    15    16   ar
    34    16    11   ar
    35    10     1   ar
    36    36    31   ar
    37     9     4   ar
    38    27    22   ar
    39    20    21    1
    40    28    29    1
@<TRIPOS>MOLECULE
*****
 36 40 0 0 0
SMALL
GASTEIGER

@<TRIPOS>ATOM
      1 C         141.1895  139.3147  160.2750 C.ar    1  UNL1        0.1651
      2 N         141.0245  140.7528  160.6686 N.ar    1  UNL1       -0.2121
      3 C         140.3342  141.1044  161.9530 C.ar    1  UNL1        0.1318
      4 C         139.8089  140.0180  162.8440 C.ar    1  UNL1        0.0491
      5 C         139.1186  140.3696  164.1284 C.ar    1  UNL1        0.0041
      6 C         138.5933  139.2832  165.0193 C.ar    1  UNL1        0.0002
      7 C         138.7583  137.8452  164.6258 C.ar    1  UNL1        0.0015
      8 C         139.4486  137.4936  163.3413 C.ar    1  UNL1        0.0192
      9 C         139.9739  138.5800  162.4504 C.ar    1  UNL1        0.0856
     10 N         140.6642  138.2284  161.1660 N.ar    1  UNL1       -0.2264
     11 C         142.0193  137.5241  156.8319 C.ar    1  UNL1        0.0698
     12 C         143.2605  138.2599  156.4217 C.ar    1  UNL1        0.1135
     13 N         143.8113  139.3472  157.2959 N.ar    1  UNL1       -0.2409
     14 C         143.1210  139.6988  158.5804 C.ar    1  UNL1        0.1020
     15 C         141.8799  138.9631  158.9906 C.ar    1  UNL1        0.0562
     16 C         141.3290  137.8758  158.1163 C.ar    1  UNL1        0.0209
     17 C         141.4608  133.9552  155.1884 C.3     1  UNL1        0.0949
     18 C         142.0117  135.0426  156.0627 C.2     1  UNL1        0.2266
     19 O         143.1056  134.7356  157.0420 O.2     1  UNL1       -0.2748
     20 N         141.4685  136.4368  155.9576 N.am    1  UNL1       -0.2827
     21 H         140.7505  136.6383  155.3149 H       1  UNL1        0.1549
     22 C         138.9536  141.8076  164.5219 C.ar    1  UNL1        0.0001
     23 C         139.9456  142.4512  165.4448 C.ar    1  UNL1        0.0000
     24 C         139.7806  143.8893  165.8383 C.ar    1  UNL1        0.0000
     25 C         138.6236  144.6837  165.3089 C.ar    1  UNL1        0.0000
     26 C         137.6315  144.0400  164.3860 C.ar    1  UNL1        0.0000
     27 C         137.7966  142.6020  163.9926 C.ar    1  UNL1        0.0000
     28 N         140.1692  142.5424  162.3466 N.pl3   1  UNL1       -0.3131
     29 H         139.3177  142.8530  162.7309 H       1  UNL1        0.1485
     30 C         141.3016  143.5073  162.1545 C.3     1  UNL1        0.1348
     31 C         142.4026  143.5833  163.1704 C.ar    1  UNL1        0.0788
     32 C         142.8440  144.9157  163.6996 C.ar    1  UNL1        0.0165
     33 C         143.9450  144.9918  164.7155 C.ar    1  UNL1        0.0029
     34 C         144.6046  143.7355  165.2022 C.ar    1  UNL1        0.0207
     35 C         144.1631  142.4032  164.6729 C.ar    1  UNL1        0.0985
     36 N         143.0621  142.3271  163.6571 N.ar    1  UNL1       -0.2464
@<TRIPOS>BOND
     1    17    18    1
     2    18    19    2
     3    18    20   am
     4    20    11    1
     5    11    12   ar
     6    12    13   ar
     7    13    14   ar
     8    14    15   ar
     9    15     1    1
    10     1     2   ar
    11     2     3   ar
    12     3    28    1
    13    28    30    1
    14    30    31    1
    15    31    32   ar
    16    32    33   ar
    17    33    34   ar
    18    34    35   ar
    19    35    36   ar
    20     3     4   ar
    21     4     5   ar
    22     5    22    1
    23    22    23   ar
    24    23    24   ar
    25    24    25   ar
    26    25    26   ar
    27    26    27   ar
    28     5     6   ar
    29     6     7   ar
    30     7     8   ar
    31     8     9   ar
    32     9    10   ar
    33    15    16   ar
    34    16    11   ar
    35    10     1   ar
    36    36    31   ar
    37     9     4   ar
    38    27    22   ar
    39    20    21    1
    40    28    29    1
@<TRIPOS>MOLECULE
*****
 36 40 0 0 0
SMALL
GASTEIGER

@<TRIPOS>ATOM
      1 C         140.1649  143.2328  159.6871 C.ar    1  UNL1        0.1651
      2 N         140.6107  141.8630  160.1054 N.ar    1  UNL1       -0.2121
      3 C         140.2165  141.3235  161.4484 C.ar    1  UNL1        0.1318
      4 C         139.3764  142.1538  162.3730 C.ar    1  UNL1        0.0491
      5 C         138.9822  141.6143  163.7160 C.ar    1  UNL1        0.0041
      6 C         138.1422  142.4446  164.6406 C.ar    1  UNL1        0.0002
      7 C         137.6964  143.8143  164.2223 C.ar    1  UNL1        0.0015
      8 C         138.0906  144.3538  162.8794 C.ar    1  UNL1        0.0192
      9 C         138.9306  143.5236  161.9547 C.ar    1  UNL1        0.0856
     10 N         139.3249  144.0631  160.6118 N.ar    1  UNL1       -0.2264
     11 C         140.6703  145.7438  156.6557 C.ar    1  UNL1        0.0698
     12 C         141.3475  144.8513  155.6582 C.ar    1  UNL1        0.1135
     13 N         141.6304  143.4194  156.0038 N.ar    1  UNL1       -0.2409
     14 C         141.2362  142.8799  157.3467 C.ar    1  UNL1        0.1020
     15 C         140.5591  143.7723  158.3442 C.ar    1  UNL1        0.0562
     16 C         140.2761  145.2043  157.9987 C.ar    1  UNL1        0.0209
     17 C         138.8723  148.9622  155.1862 C.3     1  UNL1        0.0949
     18 C         139.1552  147.5301  155.5317 C.2     1  UNL1        0.2266
     19 O         138.2059  146.4525  155.0987 O.2     1  UNL1       -0.2748
     20 N         140.3874  147.1758  156.3102 N.am    1  UNL1       -0.2827
     21 H         141.0104  147.8831  156.5944 H       1  UNL1        0.1549
     22 C         139.4280  140.2445  164.1343 C.ar    1  UNL1        0.0001
     23 C         138.6323  139.0399  163.7272 C.ar    1  UNL1        0.0000
     24 C         139.0782  137.6701  164.1454 C.ar    1  UNL1        0.0000
     25 C         140.3197  137.5049  164.9708 C.ar    1  UNL1        0.0000
     26 C         141.1154  138.7096  165.3779 C.ar    1  UNL1        0.0000
     27 C         140.6696  140.0793  164.9597 C.ar    1  UNL1        0.0000
     28 N         140.6622  139.9537  161.8667 N.pl3   1  UNL1       -0.3131
     29 H         140.0463  139.3648  162.3597 H       1  UNL1        0.1485
     30 C         142.0465  139.4812  161.5338 C.3     1  UNL1        0.1348
     31 C         143.2317  140.0828  162.2290 C.ar    1  UNL1        0.0788
     32 C         143.9175  139.3294  163.3298 C.ar    1  UNL1        0.0165
     33 C         145.1028  139.9309  164.0251 C.ar    1  UNL1        0.0029
     34 C         145.6023  141.2859  163.6193 C.ar    1  UNL1        0.0207
     35 C         144.9164  142.0393  162.5184 C.ar    1  UNL1        0.0985
     36 N         143.7312  141.4378  161.8232 N.ar    1  UNL1       -0.2464
@<TRIPOS>BOND
     1    17    18    1
     2    18    19    2
     3    18    20   am
     4    20    11    1
     5    11    12   ar
     6    12    13   ar
     7    13    14   ar
     8    14    15   ar
     9    15     1    1
    10     1     2   ar
    11     2     3   ar
    12     3    28    1
    13    28    30    1
    14    30    31    1
    15    31    32   ar
    16    32    33   ar
    17    33    34   ar
    18    34    35   ar
    19    35    36   ar
    20     3     4   ar
    21     4     5   ar
    22     5    22    1
    23    22    23   ar
    24    23    24   ar
    25    24    25   ar
    26    25    26   ar
    27    26    27   ar
    28     5     6   ar
    29     6     7   ar
    30     7     8   ar
    31     8     9   ar
    32     9    10   ar
    33    15    16   ar
    34    16    11   ar
    35    10     1   ar
    36    36    31   ar
    37     9     4   ar
    38    27    22   ar
    39    20    21    1
    40    28    29    1
@<TRIPOS>MOLECULE
*****
 36 40 0 0 0
SMALL
GASTEIGER

@<TRIPOS>ATOM
      1 C         141.3180  138.9976  163.1705 C.ar    1  UNL1        0.1651
      2 N         142.2388  139.7782  164.0610 N.ar    1  UNL1       -0.2121
      3 C         141.8328  140.0899  165.4709 C.ar    1  UNL1        0.1318
      4 C         140.5060  139.6210  165.9904 C.ar    1  UNL1        0.0491
      5 C         140.0999  139.9327  167.4004 C.ar    1  UNL1        0.0041
      6 C         138.7732  139.4639  167.9198 C.ar    1  UNL1        0.0002
      7 C         137.8525  138.6833  167.0294 C.ar    1  UNL1        0.0015
      8 C         138.2585  138.3716  165.6194 C.ar    1  UNL1        0.0192
      9 C         139.5853  138.8404  165.0999 C.ar    1  UNL1        0.0856
     10 N         139.9913  138.5287  163.6900 N.ar    1  UNL1       -0.2264
     11 C         141.1208  138.4560  159.2439 C.ar    1  UNL1        0.0698
     12 C         142.5362  138.0625  158.9406 C.ar    1  UNL1        0.1135
     13 N         143.5454  137.9806  160.0473 N.ar    1  UNL1       -0.2409
     14 C         143.1394  138.2924  161.4572 C.ar    1  UNL1        0.1020
     15 C         141.7241  138.6859  161.7606 C.ar    1  UNL1        0.0562
     16 C         140.7147  138.7677  160.6539 C.ar    1  UNL1        0.0209
     17 C         138.7455  139.9504  156.4377 C.3     1  UNL1        0.0949
     18 C         139.7548  139.8687  157.5444 C.2     1  UNL1        0.2266
     19 O         140.4074  141.1177  158.0581 O.2     1  UNL1       -0.2748
     20 N         140.1115  138.5378  158.1373 N.am    1  UNL1       -0.2827
     21 H         139.6832  137.7180  157.8001 H       1  UNL1        0.1549
     22 C         141.0207  140.7133  168.2908 C.ar    1  UNL1        0.0001
     23 C         142.0945  140.0064  169.0636 C.ar    1  UNL1        0.0000
     24 C         143.0153  140.7871  169.9541 C.ar    1  UNL1        0.0000
     25 C         142.8622  142.2746  170.0718 C.ar    1  UNL1        0.0000
     26 C         141.7883  142.9815  169.2989 C.ar    1  UNL1        0.0000
     27 C         140.8676  142.2009  168.4085 C.ar    1  UNL1        0.0000
     28 N         142.7535  140.8705  166.3614 N.pl3   1  UNL1       -0.3131
     29 H         142.7702  140.6923  167.3295 H       1  UNL1        0.1485
     30 C         143.6487  141.9226  165.7769 C.3     1  UNL1        0.1348
     31 C         143.0562  143.0841  165.0354 C.ar    1  UNL1        0.0788
     32 C         143.9490  144.0360  164.2959 C.ar    1  UNL1        0.0165
     33 C         143.3566  145.1975  163.5543 C.ar    1  UNL1        0.0029
     34 C         141.8713  145.4071  163.5522 C.ar    1  UNL1        0.0207
     35 C         140.9785  144.4551  164.2917 C.ar    1  UNL1        0.0985
     36 N         141.5710  143.2937  165.0332 N.ar    1  UNL1       -0.2464
@<TRIPOS>BOND
     1    17    18    1
     2    18    19    2
     3    18    20   am
     4    20    11    1
     5    11    12   ar
     6    12    13   ar
     7    13    14   ar
     8    14    15   ar
     9    15     1    1
    10     1     2   ar
    11     2     3   ar
    12     3    28    1
    13    28    30    1
    14    30    31    1
    15    31    32   ar
    16    32    33   ar
    17    33    34   ar
    18    34    35   ar
    19    35    36   ar
    20     3     4   ar
    21     4     5   ar
    22     5    22    1
    23    22    23   ar
    24    23    24   ar
    25    24    25   ar
    26    25    26   ar
    27    26    27   ar
    28     5     6   ar
    29     6     7   ar
    30     7     8   ar
    31     8     9   ar
    32     9    10   ar
    33    15    16   ar
    34    16    11   ar
    35    10     1   ar
    36    36    31   ar
    37     9     4   ar
    38    27    22   ar
    39    20    21    1
    40    28    29    1
@<TRIPOS>MOLECULE
*****
 36 40 0 0 0
SMALL
GASTEIGER

@<TRIPOS>ATOM
      1 C         140.2601  140.8857  163.2118 C.ar    1  UNL1        0.1651
      2 N         141.1776  141.6740  164.0988 N.ar    1  UNL1       -0.2121
      3 C         141.0590  141.5615  165.5899 C.ar    1  UNL1        0.1318
      4 C         140.0227  140.6607  166.1939 C.ar    1  UNL1        0.0491
      5 C         139.9040  140.5483  167.6850 C.ar    1  UNL1        0.0041
      6 C         138.8678  139.6475  168.2891 C.ar    1  UNL1        0.0002
      7 C         137.9503  138.8593  167.4021 C.ar    1  UNL1        0.0015
      8 C         138.0690  138.9717  165.9110 C.ar    1  UNL1        0.0192
      9 C         139.1052  139.8725  165.3069 C.ar    1  UNL1        0.0856
     10 N         139.2239  139.9849  163.8159 N.ar    1  UNL1       -0.2264
     11 C         141.8518  141.1492  159.5859 C.ar    1  UNL1        0.0698
     12 C         140.6162  141.2231  158.7386 C.ar    1  UNL1        0.1135
     13 N         139.2619  141.1844  159.3824 N.ar    1  UNL1       -0.2409
     14 C         139.1432  141.0720  160.8735 C.ar    1  UNL1        0.1020
     15 C         140.3788  140.9981  161.7207 C.ar    1  UNL1        0.0562
     16 C         141.7331  141.0367  161.0770 C.ar    1  UNL1        0.0209
     17 C         145.1980  142.5441  157.9713 C.3     1  UNL1        0.0949
     18 C         143.8437  142.5055  158.6151 C.2     1  UNL1        0.2266
     19 O         143.1272  143.7847  158.9318 O.2     1  UNL1       -0.2748
     20 N         143.2060  141.1878  158.9421 N.am    1  UNL1       -0.2827
     21 H         143.6764  140.3483  158.7342 H       1  UNL1        0.1549
     22 C         140.8216  141.3366  168.5720 C.ar    1  UNL1        0.0001
     23 C         142.1218  140.7412  169.0244 C.ar    1  UNL1        0.0000
     24 C         143.0394  141.5295  169.9114 C.ar    1  UNL1        0.0000
     25 C         142.6566  142.9133  170.3459 C.ar    1  UNL1        0.0000
     26 C         141.3563  143.5086  169.8934 C.ar    1  UNL1        0.0000
     27 C         140.4388  142.7203  169.0065 C.ar    1  UNL1        0.0000
     28 N         141.9764  142.3498  166.4768 N.pl3   1  UNL1       -0.3131
     29 H         141.6128  142.8416  167.2483 H       1  UNL1        0.1485
     30 C         143.4480  142.3887  166.1885 C.3     1  UNL1        0.1348
     31 C         143.9322  142.6548  164.7940 C.ar    1  UNL1        0.0788
     32 C         144.6817  141.5932  164.0449 C.ar    1  UNL1        0.0165
     33 C         145.1660  141.8593  162.6504 C.ar    1  UNL1        0.0029
     34 C         144.9007  143.1871  162.0049 C.ar    1  UNL1        0.0207
     35 C         144.1511  144.2488  162.7540 C.ar    1  UNL1        0.0985
     36 N         143.6669  143.9826  164.1485 N.ar    1  UNL1       -0.2464
@<TRIPOS>BOND
     1    17    18    1
     2    18    19    2
     3    18    20   am
     4    20    11    1
     5    11    12   ar
     6    12    13   ar
     7    13    14   ar
     8    14    15   ar
     9    15     1    1
    10     1     2   ar
    11     2     3   ar
    12     3    28    1
    13    28    30    1
    14    30    31    1
    15    31    32   ar
    16    32    33   ar
    17    33    34   ar
    18    34    35   ar
    19    35    36   ar
    20     3     4   ar
    21     4     5   ar
    22     5    22    1
    23    22    23   ar
    24    23    24   ar
    25    24    25   ar
    26    25    26   ar
    27    26    27   ar
    28     5     6   ar
    29     6     7   ar
    30     7     8   ar
    31     8     9   ar
    32     9    10   ar
    33    15    16   ar
    34    16    11   ar
    35    10     1   ar
    36    36    31   ar
    37     9     4   ar
    38    27    22   ar
    39    20    21    1
    40    28    29    1
@<TRIPOS>MOLECULE
*****
 36 40 0 0 0
SMALL
GASTEIGER

@<TRIPOS>ATOM
      1 C         139.1234  141.8815  160.1488 C.ar    1  UNL1        0.1651
      2 N         140.5432  141.7976  160.6254 N.ar    1  UNL1       -0.2121
      3 C         140.9351  142.4270  161.9294 C.ar    1  UNL1        0.1318
      4 C         139.9071  143.1405  162.7566 C.ar    1  UNL1        0.0491
      5 C         140.2989  143.7699  164.0606 C.ar    1  UNL1        0.0041
      6 C         139.2710  144.4834  164.8878 C.ar    1  UNL1        0.0002
      7 C         137.8512  144.5673  164.4112 C.ar    1  UNL1        0.0015
      8 C         137.4594  143.9378  163.1072 C.ar    1  UNL1        0.0192
      9 C         138.4873  143.2244  162.2800 C.ar    1  UNL1        0.0856
     10 N         138.0955  142.5949  160.9760 N.ar    1  UNL1       -0.2264
     11 C         137.1397  141.1267  156.7954 C.ar    1  UNL1        0.0698
     12 C         137.9479  139.9931  156.2370 C.ar    1  UNL1        0.1135
     13 N         139.1480  139.4891  156.9825 N.ar    1  UNL1       -0.2409
     14 C         139.5398  140.1186  158.2864 C.ar    1  UNL1        0.1020
     15 C         138.7316  141.2521  158.8448 C.ar    1  UNL1        0.0562
     16 C         137.5315  141.7562  158.0993 C.ar    1  UNL1        0.0209
     17 C         133.4682  141.3388  155.3035 C.3     1  UNL1        0.0949
     18 C         134.6683  140.8347  156.0491 C.2     1  UNL1        0.2266
     19 O         134.5970  139.5346  156.7937 O.2     1  UNL1       -0.2748
     20 N         135.9396  141.6308  156.0499 N.am    1  UNL1       -0.2827
     21 H         135.9864  142.4841  155.5611 H       1  UNL1        0.1549
     22 C         141.7187  143.6860  164.5372 C.ar    1  UNL1        0.0001
     23 C         142.7538  144.6164  163.9780 C.ar    1  UNL1        0.0000
     24 C         144.1737  144.5325  164.4547 C.ar    1  UNL1        0.0000
     25 C         144.5583  143.5180  165.4906 C.ar    1  UNL1        0.0000
     26 C         143.5230  142.5875  166.0497 C.ar    1  UNL1        0.0000
     27 C         142.1033  142.6715  165.5731 C.ar    1  UNL1        0.0000
     28 N         142.3548  142.3431  162.4060 N.pl3   1  UNL1       -0.3131
     29 H         142.7892  143.1337  162.8003 H       1  UNL1        0.1485
     30 C         143.1127  141.0545  162.2820 C.3     1  UNL1        0.1348
     31 C         143.2126  140.1272  163.4568 C.ar    1  UNL1        0.0788
     32 C         144.5508  139.8296  164.0656 C.ar    1  UNL1        0.0165
     33 C         144.6508  138.9023  165.2404 C.ar    1  UNL1        0.0029
     34 C         143.4126  138.2725  165.8063 C.ar    1  UNL1        0.0207
     35 C         142.0744  138.5701  165.1974 C.ar    1  UNL1        0.0985
     36 N         141.9744  139.4974  164.0226 N.ar    1  UNL1       -0.2464
@<TRIPOS>BOND
     1    17    18    1
     2    18    19    2
     3    18    20   am
     4    20    11    1
     5    11    12   ar
     6    12    13   ar
     7    13    14   ar
     8    14    15   ar
     9    15     1    1
    10     1     2   ar
    11     2     3   ar
    12     3    28    1
    13    28    30    1
    14    30    31    1
    15    31    32   ar
    16    32    33   ar
    17    33    34   ar
    18    34    35   ar
    19    35    36   ar
    20     3     4   ar
    21     4     5   ar
    22     5    22    1
    23    22    23   ar
    24    23    24   ar
    25    24    25   ar
    26    25    26   ar
    27    26    27   ar
    28     5     6   ar
    29     6     7   ar
    30     7     8   ar
    31     8     9   ar
    32     9    10   ar
    33    15    16   ar
    34    16    11   ar
    35    10     1   ar
    36    36    31   ar
    37     9     4   ar
    38    27    22   ar
    39    20    21    1
    40    28    29    1
@<TRIPOS>MOLECULE
*****
 36 40 0 0 0
SMALL
GASTEIGER

@<TRIPOS>ATOM
      1 C         141.1448  139.5976  160.1009 C.ar    1  UNL1        0.1651
      2 N         140.9765  141.0115  160.5729 N.ar    1  UNL1       -0.2121
      3 C         140.3048  141.2891  161.8850 C.ar    1  UNL1        0.1318
      4 C         139.8014  140.1529  162.7251 C.ar    1  UNL1        0.0491
      5 C         139.1297  140.4305  164.0373 C.ar    1  UNL1        0.0041
      6 C         138.6264  139.2944  164.8774 C.ar    1  UNL1        0.0002
      7 C         138.7947  137.8807  164.4054 C.ar    1  UNL1        0.0015
      8 C         139.4664  137.6030  163.0932 C.ar    1  UNL1        0.0192
      9 C         139.9698  138.7391  162.2531 C.ar    1  UNL1        0.0856
     10 N         140.6415  138.4615  160.9410 N.ar    1  UNL1       -0.2264
     11 C         143.8568  139.5923  157.2034 C.ar    1  UNL1        0.0698
     12 C         143.1599  138.7647  156.1644 C.ar    1  UNL1        0.1135
     13 N         141.7914  138.2147  156.4376 N.ar    1  UNL1       -0.2409
     14 C         141.1197  138.4923  157.7498 C.ar    1  UNL1        0.1020
     15 C         141.8165  139.3200  158.7887 C.ar    1  UNL1        0.0562
     16 C         143.1851  139.8700  158.5155 C.ar    1  UNL1        0.0209
     17 C         146.7637  142.1405  156.3051 C.3     1  UNL1        0.0949
     18 C         145.3951  141.5906  156.5783 C.2     1  UNL1        0.2266
     19 O         144.1964  142.4888  156.4997 O.2     1  UNL1       -0.2748
     20 N         145.2253  140.1423  156.9302 N.am    1  UNL1       -0.2827
     21 H         146.0121  139.5528  156.9818 H       1  UNL1        0.1549
     22 C         138.9614  141.8444  164.5093 C.ar    1  UNL1        0.0001
     23 C         137.7986  142.6617  164.0300 C.ar    1  UNL1        0.0000
     24 C         137.6302  144.0756  164.5020 C.ar    1  UNL1        0.0000
     25 C         138.6247  144.6721  165.4534 C.ar    1  UNL1        0.0000
     26 C         139.7876  143.8547  165.9327 C.ar    1  UNL1        0.0000
     27 C         139.9559  142.4409  165.4607 C.ar    1  UNL1        0.0000
     28 N         140.1364  142.7029  162.3571 N.pl3   1  UNL1       -0.3131
     29 H         139.2843  142.9898  162.7581 H       1  UNL1        0.1485
     30 C         141.2664  143.6796  162.2182 C.3     1  UNL1        0.1348
     31 C         142.3815  143.6840  163.2214 C.ar    1  UNL1        0.0788
     32 C         142.8819  144.9827  163.7808 C.ar    1  UNL1        0.0165
     33 C         143.9971  144.9871  164.7841 C.ar    1  UNL1        0.0029
     34 C         144.6118  143.6929  165.2278 C.ar    1  UNL1        0.0207
     35 C         144.1114  142.3941  164.6683 C.ar    1  UNL1        0.0985
     36 N         142.9963  142.3897  163.6651 N.ar    1  UNL1       -0.2464
@<TRIPOS>BOND
     1    17    18    1
     2    18    19    2
     3    18    20   am
     4    20    11    1
     5    11    12   ar
     6    12    13   ar
     7    13    14   ar
     8    14    15   ar
     9    15     1    1
    10     1     2   ar
    11     2     3   ar
    12     3    28    1
    13    28    30    1
    14    30    31    1
    15    31    32   ar
    16    32    33   ar
    17    33    34   ar
    18    34    35   ar
    19    35    36   ar
    20     3     4   ar
    21     4     5   ar
    22     5    22    1
    23    22    23   ar
    24    23    24   ar
    25    24    25   ar
    26    25    26   ar
    27    26    27   ar
    28     5     6   ar
    29     6     7   ar
    30     7     8   ar
    31     8     9   ar
    32     9    10   ar
    33    15    16   ar
    34    16    11   ar
    35    10     1   ar
    36    36    31   ar
    37     9     4   ar
    38    27    22   ar
    39    20    21    1
    40    28    29    1
