@<TRIPOS>MOLECULE
*****
 32 35 0 0 0
SMALL
GASTEIGER

@<TRIPOS>ATOM
      1 C         139.5851  140.2944  167.7333 C.ar    1  UNL1       -0.0065
      2 C         140.5000  141.2877  167.0803 C.ar    1  UNL1       -0.0033
      3 C         140.8926  141.1139  165.6431 C.ar    1  UNL1       -0.0048
      4 C         140.3704  139.9468  164.8588 C.ar    1  UNL1       -0.0245
      5 C         139.4555  138.9535  165.5117 C.ar    1  UNL1       -0.0263
      6 C         139.0629  139.1273  166.9490 C.ar    1  UNL1       -0.0075
      7 C         138.9332  137.7864  164.7274 C.3     1  UNL1        0.0277
      8 C         139.3258  137.6126  163.2902 C.3     1  UNL1        0.0248
      9 C         140.2408  138.6060  162.6373 C.3     1  UNL1        0.0801
     10 C         140.7630  139.7730  163.4216 C.3     1  UNL1        0.0458
     11 N         140.6334  138.4322  161.2000 N.am    1  UNL1       -0.2783
     12 C         139.6231  138.6567  160.1142 C.3     1  UNL1        0.1107
     13 C         140.0157  138.4829  158.6769 C.3     1  UNL1        0.0942
     14 N         141.4186  138.0846  158.3256 N.3     1  UNL1       -0.2632
     15 C         142.4288  137.8601  159.4114 C.3     1  UNL1        0.1587
     16 C         142.0362  138.0339  160.8487 C.2     1  UNL1        0.2420
     17 O         143.0463  137.8094  161.9345 O.2     1  UNL1       -0.2734
     18 C         141.8112  137.9108  156.8883 C.3     1  UNL1        0.0773
     19 C         142.9734  137.0329  156.5292 C.3     1  UNL1        0.0437
     20 C         142.7845  135.5495  156.4117 C.ar    1  UNL1       -0.0207
     21 C         141.8094  134.9940  155.4165 C.ar    1  UNL1       -0.0034
     22 C         141.6206  133.5106  155.2990 C.ar    1  UNL1        0.0111
     23 C         142.4069  132.5827  156.1768 C.ar    1  UNL1        0.0577
     24 CL        142.2181  131.0992  156.0593 Cl      1  UNL1       -0.0822
     25 C         143.3821  133.1381  157.1721 C.ar    1  UNL1        0.0111
     26 C         143.5709  134.6215  157.2896 C.ar    1  UNL1       -0.0034
     27 C         139.1925  140.4682  169.1705 C.3     1  UNL1        0.0991
     28 N         140.1338  141.1341  170.1299 N.3     1  UNL1       -0.2690
     29 C         142.0505  139.3961  169.8938 C.3     1  UNL1        0.0188
     30 C         141.2621  140.3540  170.7369 C.3     1  UNL1        0.0724
     31 C         139.9469  142.5801  170.4823 C.3     1  UNL1        0.0724
     32 C         140.7230  143.6362  169.7527 C.3     1  UNL1        0.0188
@<TRIPOS>BOND
     1    29    30    1
     2    30    28    1
     3    28    31    1
     4    31    32    1
     5    28    27    1
     6    27     1    1
     7     1     2   ar
     8     2     3   ar
     9     3     4   ar
    10     4     5   ar
    11     5     6   ar
    12     5     7    1
    13     7     8    1
    14     8     9    1
    15     9    11    1
    16    11    12    1
    17    12    13    1
    18    13    14    1
    19    14    18    1
    20    18    19    1
    21    19    20    1
    22    20    21   ar
    23    21    22   ar
    24    22    23   ar
    25    23    24    1
    26    23    25   ar
    27    25    26   ar
    28    14    15    1
    29    15    16    1
    30    16    17    2
    31     9    10    1
    32     6     1   ar
    33    16    11   am
    34    10     4    1
    35    26    20   ar
@<TRIPOS>MOLECULE
*****
 32 35 0 0 0
SMALL
GASTEIGER

@<TRIPOS>ATOM
      1 C         142.6239  140.8567  167.6569 C.ar    1  UNL1       -0.0065
      2 C         142.8081  141.9993  166.7027 C.ar    1  UNL1       -0.0033
      3 C         142.6346  141.7810  165.2288 C.ar    1  UNL1       -0.0048
      4 C         142.2769  140.4201  164.7092 C.ar    1  UNL1       -0.0245
      5 C         142.0927  139.2776  165.6634 C.ar    1  UNL1       -0.0263
      6 C         142.2662  139.4958  167.1372 C.ar    1  UNL1       -0.0075
      7 C         141.7350  137.9166  165.1437 C.3     1  UNL1        0.0277
      8 C         141.5616  137.6983  163.6699 C.3     1  UNL1        0.0248
      9 C         141.7458  138.8410  162.7157 C.3     1  UNL1        0.0801
     10 C         142.1034  140.2018  163.2353 C.3     1  UNL1        0.0458
     11 N         141.5723  138.6227  161.2418 N.am    1  UNL1       -0.2783
     12 C         140.2126  138.7457  160.6203 C.3     1  UNL1        0.1107
     13 C         140.0391  138.5274  159.1465 C.3     1  UNL1        0.0942
     14 N         141.2253  138.1861  158.2941 N.3     1  UNL1       -0.2632
     15 C         142.5849  138.0631  158.9156 C.3     1  UNL1        0.1587
     16 C         142.7584  138.2814  160.3894 C.2     1  UNL1        0.2420
     17 O         144.1180  138.1584  161.0109 O.2     1  UNL1       -0.2734
     18 C         141.0518  137.9678  156.8202 C.3     1  UNL1        0.0773
     19 C         142.1148  137.2556  156.0373 C.3     1  UNL1        0.0437
     20 C         142.1945  135.7581  156.0709 C.ar    1  UNL1       -0.0207
     21 C         143.2014  135.0802  156.9522 C.ar    1  UNL1       -0.0034
     22 C         143.2811  133.5827  156.9858 C.ar    1  UNL1        0.0111
     23 C         142.3539  132.7630  156.1382 C.ar    1  UNL1        0.0577
     24 CL        142.4336  131.2655  156.1719 Cl      1  UNL1       -0.0822
     25 C         141.3469  133.4409  155.2570 C.ar    1  UNL1        0.0111
     26 C         141.2672  134.9384  155.2233 C.ar    1  UNL1       -0.0034
     27 C         142.7974  141.0750  169.1307 C.3     1  UNL1        0.0991
     28 N         141.6694  141.6382  169.9434 N.3     1  UNL1       -0.2690
     29 C         139.4466  140.3270  169.6431 C.3     1  UNL1        0.0188
     30 C         140.6145  140.7260  170.4958 C.3     1  UNL1        0.0724
     31 C         141.5963  143.1137  170.2037 C.3     1  UNL1        0.0724
     32 C         140.4254  143.9064  169.7033 C.3     1  UNL1        0.0188
@<TRIPOS>BOND
     1    29    30    1
     2    30    28    1
     3    28    31    1
     4    31    32    1
     5    28    27    1
     6    27     1    1
     7     1     2   ar
     8     2     3   ar
     9     3     4   ar
    10     4     5   ar
    11     5     6   ar
    12     5     7    1
    13     7     8    1
    14     8     9    1
    15     9    11    1
    16    11    12    1
    17    12    13    1
    18    13    14    1
    19    14    18    1
    20    18    19    1
    21    19    20    1
    22    20    21   ar
    23    21    22   ar
    24    22    23   ar
    25    23    24    1
    26    23    25   ar
    27    25    26   ar
    28    14    15    1
    29    15    16    1
    30    16    17    2
    31     9    10    1
    32     6     1   ar
    33    16    11   am
    34    10     4    1
    35    26    20   ar
@<TRIPOS>MOLECULE
*****
 32 35 0 0 0
SMALL
GASTEIGER

@<TRIPOS>ATOM
      1 C         139.9181  140.4026  167.6234 C.ar    1  UNL1       -0.0065
      2 C         140.9523  141.2980  167.0081 C.ar    1  UNL1       -0.0033
      3 C         141.3955  141.0704  165.5933 C.ar    1  UNL1       -0.0048
      4 C         140.8046  139.9472  164.7938 C.ar    1  UNL1       -0.0245
      5 C         139.7705  139.0517  165.4090 C.ar    1  UNL1       -0.0263
      6 C         139.3272  139.2794  166.8239 C.ar    1  UNL1       -0.0075
      7 C         139.1795  137.9285  164.6095 C.3     1  UNL1        0.0277
      8 C         139.6228  137.7008  163.1947 C.3     1  UNL1        0.0248
      9 C         140.6570  138.5964  162.5794 C.3     1  UNL1        0.0801
     10 C         141.2479  139.7195  163.3789 C.3     1  UNL1        0.0458
     11 N         141.1002  138.3687  161.1646 N.am    1  UNL1       -0.2783
     12 C         142.4648  137.8112  160.8867 C.3     1  UNL1        0.1107
     13 C         142.9080  137.5836  159.4718 C.3     1  UNL1        0.0942
     14 N         141.9867  137.9134  158.3350 N.3     1  UNL1       -0.2632
     15 C         140.6222  138.4708  158.6129 C.3     1  UNL1        0.1587
     16 C         140.1789  138.6985  160.0277 C.2     1  UNL1        0.2420
     17 O         138.8144  139.2559  160.3057 O.2     1  UNL1       -0.2734
     18 C         142.4299  137.6857  156.9201 C.3     1  UNL1        0.0773
     19 C         141.7327  136.6645  156.0709 C.3     1  UNL1        0.0437
     20 C         142.1058  135.2159  156.1818 C.ar    1  UNL1       -0.0207
     21 C         143.2265  134.7972  157.0866 C.ar    1  UNL1       -0.0034
     22 C         143.5996  133.3486  157.1976 C.ar    1  UNL1        0.0111
     23 C         142.8520  132.3187  156.4037 C.ar    1  UNL1        0.0577
     24 CL        143.2251  130.8700  156.5146 Cl      1  UNL1       -0.0822
     25 C         141.7313  132.7373  155.4988 C.ar    1  UNL1        0.0111
     26 C         141.3582  134.1859  155.3879 C.ar    1  UNL1       -0.0034
     27 C         139.4749  140.6302  169.0382 C.3     1  UNL1        0.0991
     28 N         140.4765  141.0208  170.0843 N.3     1  UNL1       -0.2690
     29 C         142.9881  140.3823  170.2692 C.3     1  UNL1        0.0188
     30 C         141.5433  140.0517  170.5001 C.3     1  UNL1        0.0724
     31 C         140.4112  142.3804  170.7146 C.3     1  UNL1        0.0724
     32 C         140.3710  143.6062  169.8512 C.3     1  UNL1        0.0188
@<TRIPOS>BOND
     1    29    30    1
     2    30    28    1
     3    28    31    1
     4    31    32    1
     5    28    27    1
     6    27     1    1
     7     1     2   ar
     8     2     3   ar
     9     3     4   ar
    10     4     5   ar
    11     5     6   ar
    12     5     7    1
    13     7     8    1
    14     8     9    1
    15     9    11    1
    16    11    12    1
    17    12    13    1
    18    13    14    1
    19    14    18    1
    20    18    19    1
    21    19    20    1
    22    20    21   ar
    23    21    22   ar
    24    22    23   ar
    25    23    24    1
    26    23    25   ar
    27    25    26   ar
    28    14    15    1
    29    15    16    1
    30    16    17    2
    31     9    10    1
    32     6     1   ar
    33    16    11   am
    34    10     4    1
    35    26    20   ar
@<TRIPOS>MOLECULE
*****
 32 35 0 0 0
SMALL
GASTEIGER

@<TRIPOS>ATOM
      1 C         139.2955  139.8691  167.7652 C.ar    1  UNL1       -0.0065
      2 C         138.3156  138.9318  167.1241 C.ar    1  UNL1       -0.0033
      3 C         138.4938  138.5252  165.6913 C.ar    1  UNL1       -0.0048
      4 C         139.6520  139.0560  164.8996 C.ar    1  UNL1       -0.0245
      5 C         140.6320  139.9933  165.5407 C.ar    1  UNL1       -0.0263
      6 C         140.4537  140.3999  166.9735 C.ar    1  UNL1       -0.0075
      7 C         141.7903  140.5242  164.7491 C.3     1  UNL1        0.0277
      8 C         141.9685  140.1176  163.3163 C.3     1  UNL1        0.0248
      9 C         140.9885  139.1802  162.6751 C.3     1  UNL1        0.0801
     10 C         139.8303  138.6494  163.4668 C.3     1  UNL1        0.0458
     11 N         141.1668  138.7736  161.2423 N.am    1  UNL1       -0.2783
     12 C         142.4190  138.0679  160.8132 C.3     1  UNL1        0.1107
     13 C         142.5973  137.6614  159.3804 C.3     1  UNL1        0.0942
     14 N         141.5233  137.9605  158.3767 N.3     1  UNL1       -0.2632
     15 C         140.2712  138.6661  158.8059 C.3     1  UNL1        0.1587
     16 C         140.0929  139.0727  160.2387 C.2     1  UNL1        0.2420
     17 O         138.8408  139.7783  160.6679 O.2     1  UNL1       -0.2734
     18 C         141.7016  137.5539  156.9439 C.3     1  UNL1        0.0773
     19 C         142.8784  136.7142  156.5434 C.3     1  UNL1        0.0437
     20 C         142.7279  135.2279  156.4086 C.ar    1  UNL1       -0.0207
     21 C         141.7158  134.6596  155.4586 C.ar    1  UNL1       -0.0034
     22 C         141.5654  133.1733  155.3238 C.ar    1  UNL1        0.0111
     23 C         142.4271  132.2552  156.1389 C.ar    1  UNL1        0.0577
     24 CL        142.2767  130.7689  156.0041 Cl      1  UNL1       -0.0822
     25 C         143.4394  132.8235  157.0890 C.ar    1  UNL1        0.0111
     26 C         143.5898  134.3098  157.2238 C.ar    1  UNL1       -0.0034
     27 C         139.1172  140.2757  169.1980 C.3     1  UNL1        0.0991
     28 N         140.2801  140.8201  169.9734 N.3     1  UNL1       -0.2690
     29 C         140.3904  143.3400  169.3504 C.3     1  UNL1        0.0188
     30 C         140.2960  142.2614  170.3886 C.3     1  UNL1        0.0724
     31 C         141.4272  139.9231  170.3336 C.3     1  UNL1        0.0724
     32 C         142.8352  140.3551  170.0490 C.3     1  UNL1        0.0188
@<TRIPOS>BOND
     1    29    30    1
     2    30    28    1
     3    28    31    1
     4    31    32    1
     5    28    27    1
     6    27     1    1
     7     1     2   ar
     8     2     3   ar
     9     3     4   ar
    10     4     5   ar
    11     5     6   ar
    12     5     7    1
    13     7     8    1
    14     8     9    1
    15     9    11    1
    16    11    12    1
    17    12    13    1
    18    13    14    1
    19    14    18    1
    20    18    19    1
    21    19    20    1
    22    20    21   ar
    23    21    22   ar
    24    22    23   ar
    25    23    24    1
    26    23    25   ar
    27    25    26   ar
    28    14    15    1
    29    15    16    1
    30    16    17    2
    31     9    10    1
    32     6     1   ar
    33    16    11   am
    34    10     4    1
    35    26    20   ar
@<TRIPOS>MOLECULE
*****
 32 35 0 0 0
SMALL
GASTEIGER

@<TRIPOS>ATOM
      1 C         145.8072  141.0763  155.3304 C.ar    1  UNL1       -0.0065
      2 C         145.7354  142.0220  156.4925 C.ar    1  UNL1       -0.0033
      3 C         144.8593  141.7018  157.6671 C.ar    1  UNL1       -0.0048
      4 C         144.0549  140.4358  157.6798 C.ar    1  UNL1       -0.0245
      5 C         144.1267  139.4900  156.5177 C.ar    1  UNL1       -0.0263
      6 C         145.0028  139.8103  155.3431 C.ar    1  UNL1       -0.0075
      7 C         143.3223  138.2240  156.5303 C.3     1  UNL1        0.0277
      8 C         142.4461  137.9037  157.7050 C.3     1  UNL1        0.0248
      9 C         142.3744  138.8496  158.8671 C.3     1  UNL1        0.0801
     10 C         143.1788  140.1155  158.8545 C.3     1  UNL1        0.0458
     11 N         141.4983  138.5293  160.0418 N.am    1  UNL1       -0.2783
     12 C         140.0200  138.7708  159.9627 C.3     1  UNL1        0.1107
     13 C         139.1438  138.4506  161.1374 C.3     1  UNL1        0.0942
     14 N         139.7461  137.8888  162.3911 N.3     1  UNL1       -0.2632
     15 C         141.2244  137.6474  162.4702 C.3     1  UNL1        0.1587
     16 C         142.1005  137.9676  161.2955 C.2     1  UNL1        0.2420
     17 O         143.5788  137.7261  161.3745 O.2     1  UNL1       -0.2734
     18 C         138.8700  137.5686  163.5658 C.3     1  UNL1        0.0773
     19 C         139.0358  138.3217  164.8525 C.3     1  UNL1        0.0437
     20 C         138.9804  139.8206  164.8567 C.ar    1  UNL1       -0.0207
     21 C         139.9831  140.6060  165.6489 C.ar    1  UNL1       -0.0034
     22 C         139.9278  142.1050  165.6531 C.ar    1  UNL1        0.0111
     23 C         138.8697  142.8186  164.8650 C.ar    1  UNL1        0.0577
     24 CL        138.8143  144.3176  164.8691 Cl      1  UNL1       -0.0822
     25 C         137.8669  142.0332  164.0726 C.ar    1  UNL1        0.0111
     26 C         137.9223  140.5343  164.0685 C.ar    1  UNL1       -0.0034
     27 C         146.6833  141.3965  154.1557 C.3     1  UNL1        0.0991
     28 N         147.9377  142.1952  154.3514 N.3     1  UNL1       -0.2690
     29 C         150.4298  141.7239  154.9150 C.3     1  UNL1        0.0188
     30 C         148.9845  141.7233  155.3166 C.3     1  UNL1        0.0724
     31 C         148.1455  143.4660  153.5818 C.3     1  UNL1        0.0724
     32 C         147.2546  144.6470  153.8296 C.3     1  UNL1        0.0188
@<TRIPOS>BOND
     1    29    30    1
     2    30    28    1
     3    28    31    1
     4    31    32    1
     5    28    27    1
     6    27     1    1
     7     1     2   ar
     8     2     3   ar
     9     3     4   ar
    10     4     5   ar
    11     5     6   ar
    12     5     7    1
    13     7     8    1
    14     8     9    1
    15     9    11    1
    16    11    12    1
    17    12    13    1
    18    13    14    1
    19    14    18    1
    20    18    19    1
    21    19    20    1
    22    20    21   ar
    23    21    22   ar
    24    22    23   ar
    25    23    24    1
    26    23    25   ar
    27    25    26   ar
    28    14    15    1
    29    15    16    1
    30    16    17    2
    31     9    10    1
    32     6     1   ar
    33    16    11   am
    34    10     4    1
    35    26    20   ar
@<TRIPOS>MOLECULE
*****
 32 35 0 0 0
SMALL
GASTEIGER

@<TRIPOS>ATOM
      1 C         139.8427  139.9775  165.7609 C.ar    1  UNL1       -0.0065
      2 C         139.4465  138.5506  165.5222 C.ar    1  UNL1       -0.0033
      3 C         139.6465  137.9328  164.1701 C.ar    1  UNL1       -0.0048
      4 C         140.2427  138.7418  163.0566 C.ar    1  UNL1       -0.0245
      5 C         140.6389  140.1687  163.2952 C.ar    1  UNL1       -0.0263
      6 C         140.4389  140.7865  164.6474 C.ar    1  UNL1       -0.0075
      7 C         141.2352  140.9778  162.1817 C.3     1  UNL1        0.0277
      8 C         141.4352  140.3600  160.8296 C.3     1  UNL1        0.0248
      9 C         141.0389  138.9330  160.5910 C.3     1  UNL1        0.0801
     10 C         140.4427  138.1240  161.7045 C.3     1  UNL1        0.0458
     11 N         141.2389  138.3152  159.2388 N.am    1  UNL1       -0.2783
     12 C         142.5340  137.6334  158.9099 C.3     1  UNL1        0.1107
     13 C         142.7340  137.0155  157.5578 C.3     1  UNL1        0.0942
     14 N         141.6389  137.0795  156.5345 N.3     1  UNL1       -0.2632
     15 C         140.3440  137.7613  156.8635 C.3     1  UNL1        0.1587
     16 C         140.1440  138.3791  158.2156 C.2     1  UNL1        0.2420
     17 O         138.8491  139.0609  158.5446 O.2     1  UNL1       -0.2734
     18 C         141.8389  136.4617  155.1824 C.3     1  UNL1        0.0773
     19 C         141.3050  135.0889  154.8987 C.3     1  UNL1        0.0437
     20 C         142.0945  133.8789  155.3020 C.ar    1  UNL1       -0.0207
     21 C         143.5359  134.0198  155.6925 C.ar    1  UNL1       -0.0034
     22 C         144.3254  132.8099  156.0958 C.ar    1  UNL1        0.0111
     23 C         143.6735  131.4590  156.1086 C.ar    1  UNL1        0.0577
     24 CL        144.4630  130.2490  156.5119 Cl      1  UNL1       -0.0822
     25 C         142.2321  131.3180  155.7181 C.ar    1  UNL1        0.0111
     26 C         141.4425  132.5280  155.3148 C.ar    1  UNL1       -0.0034
     27 C         139.6427  140.5953  167.1130 C.3     1  UNL1        0.0991
     28 N         140.6851  140.4234  168.1778 N.3     1  UNL1       -0.2690
     29 C         142.8296  139.1356  167.4756 C.3     1  UNL1        0.0188
     30 C         142.1395  140.4247  167.8107 C.3     1  UNL1        0.0724
     31 C         140.2731  140.2501  169.6097 C.3     1  UNL1        0.0724
     32 C         138.8509  140.4989  170.0163 C.3     1  UNL1        0.0188
@<TRIPOS>BOND
     1    29    30    1
     2    30    28    1
     3    28    31    1
     4    31    32    1
     5    28    27    1
     6    27     1    1
     7     1     2   ar
     8     2     3   ar
     9     3     4   ar
    10     4     5   ar
    11     5     6   ar
    12     5     7    1
    13     7     8    1
    14     8     9    1
    15     9    11    1
    16    11    12    1
    17    12    13    1
    18    13    14    1
    19    14    18    1
    20    18    19    1
    21    19    20    1
    22    20    21   ar
    23    21    22   ar
    24    22    23   ar
    25    23    24    1
    26    23    25   ar
    27    25    26   ar
    28    14    15    1
    29    15    16    1
    30    16    17    2
    31     9    10    1
    32     6     1   ar
    33    16    11   am
    34    10     4    1
    35    26    20   ar
@<TRIPOS>MOLECULE
*****
 32 35 0 0 0
SMALL
GASTEIGER

@<TRIPOS>ATOM
      1 C         141.7043  139.8981  167.2183 C.ar    1  UNL1       -0.0065
      2 C         140.4625  139.5784  166.4400 C.ar    1  UNL1       -0.0033
      3 C         140.5314  139.4187  164.9501 C.ar    1  UNL1       -0.0048
      4 C         141.8421  139.5787  164.2385 C.ar    1  UNL1       -0.0245
      5 C         143.0839  139.8984  165.0168 C.ar    1  UNL1       -0.0263
      6 C         143.0150  140.0581  166.5067 C.ar    1  UNL1       -0.0075
      7 C         144.3947  140.0584  164.3052 C.3     1  UNL1        0.0277
      8 C         144.4636  139.8987  162.8153 C.3     1  UNL1        0.0248
      9 C         143.2217  139.5790  162.0370 C.3     1  UNL1        0.0801
     10 C         141.9111  139.4190  162.7486 C.3     1  UNL1        0.0458
     11 N         143.2907  139.4193  160.5471 N.am    1  UNL1       -0.2783
     12 C         143.8694  140.5147  159.7014 C.3     1  UNL1        0.1107
     13 C         143.9383  140.3549  158.2115 C.3     1  UNL1        0.0942
     14 N         143.4285  139.0998  157.5674 N.3     1  UNL1       -0.2632
     15 C         142.8498  138.0045  158.4131 C.3     1  UNL1        0.1587
     16 C         142.7808  138.1642  159.9030 C.2     1  UNL1        0.2420
     17 O         142.2021  137.0689  160.7487 O.2     1  UNL1       -0.2734
     18 C         143.4974  138.9401  156.0775 C.3     1  UNL1        0.0773
     19 C         144.1593  137.7326  155.4825 C.3     1  UNL1        0.0437
     20 C         143.4043  136.4412  155.3727 C.ar    1  UNL1       -0.0207
     21 C         142.2772  136.3124  154.3913 C.ar    1  UNL1       -0.0034
     22 C         141.5221  135.0210  154.2815 C.ar    1  UNL1        0.0111
     23 C         141.8942  133.8583  155.1531 C.ar    1  UNL1        0.0577
     24 CL        141.1391  132.5668  155.0433 Cl      1  UNL1       -0.0822
     25 C         143.0213  133.9870  156.1345 C.ar    1  UNL1        0.0111
     26 C         143.7763  135.2784  156.2443 C.ar    1  UNL1       -0.0034
     27 C         141.6354  140.0578  168.7082 C.3     1  UNL1        0.0991
     28 N         141.2872  141.3894  169.3044 N.3     1  UNL1       -0.2690
     29 C         138.9513  140.4768  169.9831 C.3     1  UNL1        0.0188
     30 C         139.9593  141.5876  169.9732 C.3     1  UNL1        0.0724
     31 C         142.2670  142.5230  169.2319 C.3     1  UNL1        0.0724
     32 C         143.6641  142.3408  169.7466 C.3     1  UNL1        0.0188
@<TRIPOS>BOND
     1    29    30    1
     2    30    28    1
     3    28    31    1
     4    31    32    1
     5    28    27    1
     6    27     1    1
     7     1     2   ar
     8     2     3   ar
     9     3     4   ar
    10     4     5   ar
    11     5     6   ar
    12     5     7    1
    13     7     8    1
    14     8     9    1
    15     9    11    1
    16    11    12    1
    17    12    13    1
    18    13    14    1
    19    14    18    1
    20    18    19    1
    21    19    20    1
    22    20    21   ar
    23    21    22   ar
    24    22    23   ar
    25    23    24    1
    26    23    25   ar
    27    25    26   ar
    28    14    15    1
    29    15    16    1
    30    16    17    2
    31     9    10    1
    32     6     1   ar
    33    16    11   am
    34    10     4    1
    35    26    20   ar
@<TRIPOS>MOLECULE
*****
 32 35 0 0 0
SMALL
GASTEIGER

@<TRIPOS>ATOM
      1 C         145.2471  141.2574  155.9892 C.ar    1  UNL1       -0.0065
      2 C         145.2725  142.2100  157.1477 C.ar    1  UNL1       -0.0033
      3 C         144.5101  141.8895  158.3990 C.ar    1  UNL1       -0.0048
      4 C         143.7222  140.6165  158.4920 C.ar    1  UNL1       -0.0245
      5 C         143.6968  139.6640  157.3336 C.ar    1  UNL1       -0.0263
      6 C         144.4592  139.9845  156.0822 C.ar    1  UNL1       -0.0075
      7 C         142.9088  138.3909  157.4265 C.3     1  UNL1        0.0277
      8 C         142.1464  138.0705  158.6779 C.3     1  UNL1        0.0248
      9 C         142.1718  139.0231  159.8364 C.3     1  UNL1        0.0801
     10 C         142.9597  140.2961  159.7434 C.3     1  UNL1        0.0458
     11 N         141.4094  138.7026  161.0877 N.am    1  UNL1       -0.2783
     12 C         139.9275  138.9293  161.1419 C.3     1  UNL1        0.1107
     13 C         139.1651  138.6088  162.3933 C.3     1  UNL1        0.0942
     14 N         139.8845  138.0617  163.5905 N.3     1  UNL1       -0.2632
     15 C         141.3662  137.8351  163.5363 C.3     1  UNL1        0.1587
     16 C         142.1287  138.1555  162.2849 C.2     1  UNL1        0.2420
     17 O         143.6104  137.9289  162.2307 O.2     1  UNL1       -0.2734
     18 C         139.1220  137.7412  164.8419 C.3     1  UNL1        0.0773
     19 C         138.3251  138.8103  165.5291 C.3     1  UNL1        0.0437
     20 C         139.0210  139.8481  166.3589 C.ar    1  UNL1       -0.0207
     21 C         139.1212  139.6761  167.8456 C.ar    1  UNL1       -0.0034
     22 C         139.8172  140.7139  168.6754 C.ar    1  UNL1        0.0111
     23 C         140.4130  141.9237  168.0185 C.ar    1  UNL1        0.0577
     24 CL        141.1089  142.9615  168.8484 Cl      1  UNL1       -0.0822
     25 C         140.3128  142.0956  166.5318 C.ar    1  UNL1        0.0111
     26 C         139.6168  141.0578  165.7019 C.ar    1  UNL1       -0.0034
     27 C         146.0095  141.5779  154.7378 C.3     1  UNL1        0.0991
     28 N         147.2928  142.3503  154.8185 N.3     1  UNL1       -0.2690
     29 C         149.8244  141.7694  154.8808 C.3     1  UNL1        0.0188
     30 C         148.4748  141.7681  155.5355 C.3     1  UNL1        0.0724
     31 C         147.3942  143.7049  154.1822 C.3     1  UNL1        0.0724
     32 C         146.1542  144.4113  153.7205 C.3     1  UNL1        0.0188
@<TRIPOS>BOND
     1    29    30    1
     2    30    28    1
     3    28    31    1
     4    31    32    1
     5    28    27    1
     6    27     1    1
     7     1     2   ar
     8     2     3   ar
     9     3     4   ar
    10     4     5   ar
    11     5     6   ar
    12     5     7    1
    13     7     8    1
    14     8     9    1
    15     9    11    1
    16    11    12    1
    17    12    13    1
    18    13    14    1
    19    14    18    1
    20    18    19    1
    21    19    20    1
    22    20    21   ar
    23    21    22   ar
    24    22    23   ar
    25    23    24    1
    26    23    25   ar
    27    25    26   ar
    28    14    15    1
    29    15    16    1
    30    16    17    2
    31     9    10    1
    32     6     1   ar
    33    16    11   am
    34    10     4    1
    35    26    20   ar
@<TRIPOS>MOLECULE
*****
 32 35 0 0 0
SMALL
GASTEIGER

@<TRIPOS>ATOM
      1 C         142.2675  141.2740  166.7415 C.ar    1  UNL1       -0.0065
      2 C         141.3031  140.5040  165.8890 C.ar    1  UNL1       -0.0033
      3 C         141.0171  140.9536  164.4868 C.ar    1  UNL1       -0.0048
      4 C         141.6956  142.1732  163.9372 C.ar    1  UNL1       -0.0245
      5 C         142.6600  142.9433  164.7897 C.ar    1  UNL1       -0.0263
      6 C         142.9460  142.4937  166.1919 C.ar    1  UNL1       -0.0075
      7 C         143.3385  144.1630  164.2401 C.3     1  UNL1        0.0277
      8 C         143.0525  144.6126  162.8380 C.3     1  UNL1        0.0248
      9 C         142.0880  143.8425  161.9854 C.3     1  UNL1        0.0801
     10 C         141.4096  142.6228  162.5350 C.3     1  UNL1        0.0458
     11 N         141.8020  144.2921  160.5832 N.am    1  UNL1       -0.2783
     12 C         142.6025  143.7406  159.4408 C.3     1  UNL1        0.1107
     13 C         142.3165  144.1902  158.0386 C.3     1  UNL1        0.0942
     14 N         141.2300  145.1913  157.7789 N.3     1  UNL1       -0.2632
     15 C         140.4296  145.7428  158.9213 C.3     1  UNL1        0.1587
     16 C         140.7156  145.2932  160.3235 C.2     1  UNL1        0.2420
     17 O         139.9152  145.8447  161.4659 O.2     1  UNL1       -0.2734
     18 C         140.9440  145.6409  156.3767 C.3     1  UNL1        0.0773
     19 C         140.5035  144.6451  155.3450 C.3     1  UNL1        0.0437
     20 C         139.3357  143.7453  155.6216 C.ar    1  UNL1       -0.0207
     21 C         139.5630  142.3719  156.1802 C.ar    1  UNL1       -0.0034
     22 C         138.3952  141.4721  156.4568 C.ar    1  UNL1        0.0111
     23 C         137.0001  141.9456  156.1749 C.ar    1  UNL1        0.0577
     24 CL        135.8323  141.0458  156.4515 Cl      1  UNL1       -0.0822
     25 C         136.7728  143.3191  155.6163 C.ar    1  UNL1        0.0111
     26 C         137.9406  144.2189  155.3396 C.ar    1  UNL1       -0.0034
     27 C         142.5535  140.8244  168.1437 C.3     1  UNL1        0.0991
     28 N         141.6367  141.2247  169.2613 N.3     1  UNL1       -0.2690
     29 C         140.6225  143.5936  169.5921 C.3     1  UNL1        0.0188
     30 C         141.7218  142.6045  169.8435 C.3     1  UNL1        0.0724
     31 C         140.6348  140.2451  169.7969 C.3     1  UNL1        0.0724
     32 C         139.2582  140.1809  169.2047 C.3     1  UNL1        0.0188
@<TRIPOS>BOND
     1    29    30    1
     2    30    28    1
     3    28    31    1
     4    31    32    1
     5    28    27    1
     6    27     1    1
     7     1     2   ar
     8     2     3   ar
     9     3     4   ar
    10     4     5   ar
    11     5     6   ar
    12     5     7    1
    13     7     8    1
    14     8     9    1
    15     9    11    1
    16    11    12    1
    17    12    13    1
    18    13    14    1
    19    14    18    1
    20    18    19    1
    21    19    20    1
    22    20    21   ar
    23    21    22   ar
    24    22    23   ar
    25    23    24    1
    26    23    25   ar
    27    25    26   ar
    28    14    15    1
    29    15    16    1
    30    16    17    2
    31     9    10    1
    32     6     1   ar
    33    16    11   am
    34    10     4    1
    35    26    20   ar
