@<TRIPOS>MOLECULE
*****
 29 33 0 0 0
SMALL
GASTEIGER

@<TRIPOS>ATOM
      1 C         138.6799  139.6984  155.9169 C.ar    1  UNL1        0.1902
      2 N         139.4995  139.0748  154.8263 N.ar    1  UNL1       -0.1269
      3 N         140.6778  138.3979  155.4614 N.ar    1  UNL1       -0.1316
      4 C         140.5864  138.6031  156.9445 C.ar    1  UNL1        0.1615
      5 N         139.3516  139.4068  157.2260 N.ar    1  UNL1       -0.2940
      6 C         138.9984  139.7694  158.6380 C.3     1  UNL1        0.1302
      7 C         139.8800  139.3282  159.7686 C.3     1  UNL1        0.1186
      8 N         141.1148  138.5244  159.4871 N.am    1  UNL1       -0.2688
      9 C         141.9964  138.0832  160.6176 C.2     1  UNL1        0.2493
     10 O         143.2312  137.2795  160.3361 O.2     1  UNL1       -0.2699
     11 C         141.4680  138.1619  158.0750 C.3     1  UNL1        0.1343
     12 C         142.7028  137.3581  157.7935 C.3     1  UNL1        0.0298
     13 C         133.5623  140.9525  155.5726 C.3     1  UNL1        0.0527
     14 C         135.0589  141.0533  155.5728 C.ar    1  UNL1        0.0665
     15 C         135.8589  142.2962  155.3171 C.ar    1  UNL1        0.0517
     16 S         137.3128  141.9398  155.4149 S.2     1  UNL1       -0.0633
     17 C         137.4112  140.4768  155.7310 C.ar    1  UNL1        0.1462
     18 N         136.0183  139.9289  155.8285 N.ar    1  UNL1       -0.2395
     19 C         141.6432  138.4458  162.0296 C.ar    1  UNL1        0.0536
     20 C         142.1860  139.7044  162.6389 C.ar    1  UNL1        0.0045
     21 C         141.8328  140.0669  164.0510 C.ar    1  UNL1        0.0006
     22 C         140.9368  139.1709  164.8536 C.ar    1  UNL1        0.0060
     23 C         140.3940  137.9123  164.2443 C.ar    1  UNL1        0.0006
     24 C         140.7472  137.5497  162.8323 C.ar    1  UNL1        0.0045
     25 C         140.5835  139.5334  166.2657 C.ar    1  UNL1        0.0295
     26 C         139.2021  139.5619  166.8494 C.ar    1  UNL1        0.0070
     27 C         139.3145  139.9772  168.2864 C.ar    1  UNL1        0.0075
     28 C         140.7655  140.2054  168.5908 C.ar    1  UNL1        0.0354
     29 S         141.5498  139.9311  167.3418 S.2     1  UNL1       -0.0864
@<TRIPOS>BOND
     1    13    14    1
     2    14    15   ar
     3    15    16   ar
     4    16    17   ar
     5    17     1    1
     6     1     2   ar
     7     2     3   ar
     8     3     4   ar
     9     4     5   ar
    10     5     6    1
    11     6     7    1
    12     7     8    1
    13     8     9   am
    14     9    10    2
    15     9    19    1
    16    19    20   ar
    17    20    21   ar
    18    21    22   ar
    19    22    25    1
    20    25    26   ar
    21    26    27   ar
    22    27    28   ar
    23    28    29   ar
    24    22    23   ar
    25    23    24   ar
    26     8    11    1
    27    11    12    1
    28    17    18   ar
    29    18    14   ar
    30     5     1   ar
    31    24    19   ar
    32    11     4    1
    33    29    25   ar
@<TRIPOS>MOLECULE
*****
 29 33 0 0 0
SMALL
GASTEIGER

@<TRIPOS>ATOM
      1 C         138.8941  142.3182  158.6466 C.ar    1  UNL1        0.1902
      2 N         138.0025  141.3985  157.8661 N.ar    1  UNL1       -0.1269
      3 N         137.6828  140.2169  158.7330 N.ar    1  UNL1       -0.1316
      4 C         138.3767  140.4063  160.0493 C.ar    1  UNL1        0.1615
      5 N         139.1254  141.7050  159.9959 N.ar    1  UNL1       -0.2940
      6 C         139.9209  142.1614  161.1828 C.3     1  UNL1        0.1302
      7 C         139.9679  141.3191  162.4231 C.3     1  UNL1        0.1186
      8 N         139.2192  140.0204  162.4765 N.am    1  UNL1       -0.2688
      9 C         139.2661  139.1781  163.7168 C.2     1  UNL1        0.2493
     10 O         138.5174  137.8794  163.7702 O.2     1  UNL1       -0.2699
     11 C         138.4236  139.5640  161.2895 C.3     1  UNL1        0.1343
     12 C         137.6750  138.2653  161.3429 C.3     1  UNL1        0.0298
     13 C         140.0080  146.4848  155.6004 C.3     1  UNL1        0.0527
     14 C         139.9678  145.5373  156.7626 C.ar    1  UNL1        0.0665
     15 C         140.6726  145.7204  158.0741 C.ar    1  UNL1        0.0517
     16 S         140.3562  144.5367  158.9395 S.2     1  UNL1       -0.0633
     17 C         139.4558  143.6222  158.1629 C.ar    1  UNL1        0.1462
     18 N         139.2158  144.2406  156.8175 N.ar    1  UNL1       -0.2395
     19 C         140.0617  139.6345  164.9036 C.ar    1  UNL1        0.0536
     20 C         139.4201  140.4970  165.9499 C.ar    1  UNL1        0.0045
     21 C         140.2158  140.9534  167.1368 C.ar    1  UNL1        0.0006
     22 C         141.6529  140.5473  167.2775 C.ar    1  UNL1        0.0060
     23 C         142.2944  139.6849  166.2312 C.ar    1  UNL1        0.0006
     24 C         141.4988  139.2284  165.0444 C.ar    1  UNL1        0.0045
     25 C         142.4485  141.0038  168.4644 C.ar    1  UNL1        0.0295
     26 C         143.2185  142.2867  168.5691 C.ar    1  UNL1        0.0070
     27 C         143.8597  142.3332  169.9244 C.ar    1  UNL1        0.0075
     28 C         143.4859  141.0789  170.6573 C.ar    1  UNL1        0.0354
     29 S         142.6137  140.2572  169.7549 S.2     1  UNL1       -0.0864
@<TRIPOS>BOND
     1    13    14    1
     2    14    15   ar
     3    15    16   ar
     4    16    17   ar
     5    17     1    1
     6     1     2   ar
     7     2     3   ar
     8     3     4   ar
     9     4     5   ar
    10     5     6    1
    11     6     7    1
    12     7     8    1
    13     8     9   am
    14     9    10    2
    15     9    19    1
    16    19    20   ar
    17    20    21   ar
    18    21    22   ar
    19    22    25    1
    20    25    26   ar
    21    26    27   ar
    22    27    28   ar
    23    28    29   ar
    24    22    23   ar
    25    23    24   ar
    26     8    11    1
    27    11    12    1
    28    17    18   ar
    29    18    14   ar
    30     5     1   ar
    31    24    19   ar
    32    11     4    1
    33    29    25   ar
@<TRIPOS>MOLECULE
*****
 29 33 0 0 0
SMALL
GASTEIGER

@<TRIPOS>ATOM
      1 C         142.7324  140.0112  158.1754 C.ar    1  UNL1        0.1902
      2 N         141.9088  139.0930  157.3218 N.ar    1  UNL1       -0.1269
      3 N         140.8110  138.5285  158.1739 N.ar    1  UNL1       -0.1316
      4 C         140.9561  139.0978  159.5541 C.ar    1  UNL1        0.1615
      5 N         142.1436  140.0142  159.5550 N.ar    1  UNL1       -0.2940
      6 C         142.5353  140.7330  160.8119 C.3     1  UNL1        0.1302
      7 C         141.7395  140.5354  162.0680 C.3     1  UNL1        0.1186
      8 N         140.5520  139.6190  162.0671 N.am    1  UNL1       -0.2688
      9 C         139.7562  139.4214  163.3231 C.2     1  UNL1        0.2493
     10 O         138.5687  138.5050  163.3222 O.2     1  UNL1       -0.2699
     11 C         140.1603  138.9002  160.8101 C.3     1  UNL1        0.1343
     12 C         138.9727  137.9838  160.8092 C.3     1  UNL1        0.0298
     13 C         147.1286  141.4329  155.6195 C.3     1  UNL1        0.0527
     14 C         145.9546  141.4432  156.5531 C.ar    1  UNL1        0.0665
     15 C         145.6111  142.5325  157.5255 C.ar    1  UNL1        0.0517
     16 S         144.3622  142.1286  158.2516 S.2     1  UNL1       -0.0633
     17 C         143.9339  140.7898  157.7279 C.ar    1  UNL1        0.1462
     18 N         144.9181  140.3662  156.6781 N.ar    1  UNL1       -0.2395
     19 C         140.1479  140.1402  164.5800 C.ar    1  UNL1        0.0536
     20 C         139.5697  141.4907  164.8830 C.ar    1  UNL1        0.0045
     21 C         139.9615  142.2094  166.1400 C.ar    1  UNL1        0.0006
     22 C         140.9315  141.5777  167.0939 C.ar    1  UNL1        0.0060
     23 C         141.5097  140.2272  166.7909 C.ar    1  UNL1        0.0006
     24 C         141.1180  139.5085  165.5340 C.ar    1  UNL1        0.0045
     25 C         141.3232  142.2965  168.3509 C.ar    1  UNL1        0.0295
     26 C         140.4798  143.2842  169.1012 C.ar    1  UNL1        0.0070
     27 C         141.2625  143.7519  170.2922 C.ar    1  UNL1        0.0075
     28 C         142.5898  143.0532  170.2780 C.ar    1  UNL1        0.0354
     29 S         142.6274  142.1536  169.0782 S.2     1  UNL1       -0.0864
@<TRIPOS>BOND
     1    13    14    1
     2    14    15   ar
     3    15    16   ar
     4    16    17   ar
     5    17     1    1
     6     1     2   ar
     7     2     3   ar
     8     3     4   ar
     9     4     5   ar
    10     5     6    1
    11     6     7    1
    12     7     8    1
    13     8     9   am
    14     9    10    2
    15     9    19    1
    16    19    20   ar
    17    20    21   ar
    18    21    22   ar
    19    22    25    1
    20    25    26   ar
    21    26    27   ar
    22    27    28   ar
    23    28    29   ar
    24    22    23   ar
    25    23    24   ar
    26     8    11    1
    27    11    12    1
    28    17    18   ar
    29    18    14   ar
    30     5     1   ar
    31    24    19   ar
    32    11     4    1
    33    29    25   ar
@<TRIPOS>MOLECULE
*****
 29 33 0 0 0
SMALL
GASTEIGER

@<TRIPOS>ATOM
      1 C         138.6467  141.7738  162.9348 C.ar    1  UNL1        0.1902
      2 N         138.1020  143.1484  162.6819 N.ar    1  UNL1       -0.1269
      3 N         138.1952  143.4202  161.2097 N.ar    1  UNL1       -0.1316
      4 C         138.7976  142.2137  160.5528 C.ar    1  UNL1        0.1615
      5 N         139.0766  141.1961  161.6190 N.ar    1  UNL1       -0.2940
      6 C         139.6860  139.8751  161.2539 C.3     1  UNL1        0.1302
      7 C         140.0165  139.5715  159.8226 C.3     1  UNL1        0.1186
      8 N         139.7375  140.5890  158.7564 N.am    1  UNL1       -0.2688
      9 C         140.0679  140.2854  157.3251 C.2     1  UNL1        0.2493
     10 O         139.7889  141.3029  156.2588 O.2     1  UNL1       -0.2699
     11 C         139.1280  141.9101  159.1215 C.3     1  UNL1        0.1343
     12 C         138.8490  142.9276  158.0553 C.3     1  UNL1        0.0298
     13 C         137.8016  138.4599  166.9578 C.3     1  UNL1        0.0527
     14 C         138.3559  139.5727  166.1185 C.ar    1  UNL1        0.0665
     15 C         139.4333  140.5329  166.5275 C.ar    1  UNL1        0.0517
     16 S         139.6734  141.4743  165.3846 S.2     1  UNL1       -0.0633
     17 C         138.7443  141.0960  164.2694 C.ar    1  UNL1        0.1462
     18 N         137.9301  139.9207  164.7229 N.ar    1  UNL1       -0.2395
     19 C         140.6774  138.9644  156.9600 C.ar    1  UNL1        0.0536
     20 C         142.1468  138.7362  157.1571 C.ar    1  UNL1        0.0045
     21 C         142.7562  137.4150  156.7920 C.ar    1  UNL1        0.0006
     22 C         141.8963  136.3222  156.2299 C.ar    1  UNL1        0.0060
     23 C         140.4269  136.5503  156.0327 C.ar    1  UNL1        0.0006
     24 C         139.8175  137.8714  156.3978 C.ar    1  UNL1        0.0045
     25 C         142.5058  135.0010  155.8648 C.ar    1  UNL1        0.0295
     26 C         142.1376  134.1574  154.6804 C.ar    1  UNL1        0.0070
     27 C         142.9946  132.9266  154.7037 C.ar    1  UNL1        0.0075
     28 C         143.8926  133.0095  155.9024 C.ar    1  UNL1        0.0354
     29 S         143.5904  134.2917  156.6200 S.2     1  UNL1       -0.0864
@<TRIPOS>BOND
     1    13    14    1
     2    14    15   ar
     3    15    16   ar
     4    16    17   ar
     5    17     1    1
     6     1     2   ar
     7     2     3   ar
     8     3     4   ar
     9     4     5   ar
    10     5     6    1
    11     6     7    1
    12     7     8    1
    13     8     9   am
    14     9    10    2
    15     9    19    1
    16    19    20   ar
    17    20    21   ar
    18    21    22   ar
    19    22    25    1
    20    25    26   ar
    21    26    27   ar
    22    27    28   ar
    23    28    29   ar
    24    22    23   ar
    25    23    24   ar
    26     8    11    1
    27    11    12    1
    28    17    18   ar
    29    18    14   ar
    30     5     1   ar
    31    24    19   ar
    32    11     4    1
    33    29    25   ar
@<TRIPOS>MOLECULE
*****
 29 33 0 0 0
SMALL
GASTEIGER

@<TRIPOS>ATOM
      1 C         135.5036  141.7974  155.0273 C.ar    1  UNL1        0.1902
      2 N         135.5472  142.1636  153.5733 N.ar    1  UNL1       -0.1269
      3 N         136.8167  142.9228  153.3245 N.ar    1  UNL1       -0.1316
      4 C         137.5577  143.0258  154.6246 C.ar    1  UNL1        0.1615
      5 N         136.7461  142.3303  155.6770 N.ar    1  UNL1       -0.2940
      6 C         137.2434  142.2720  157.0910 C.3     1  UNL1        0.1302
      7 C         138.5523  142.9092  157.4526 C.3     1  UNL1        0.1186
      8 N         139.3639  143.6047  156.4001 N.am    1  UNL1       -0.2688
      9 C         140.6728  144.2420  156.7617 C.2     1  UNL1        0.2493
     10 O         141.4844  144.9375  155.7093 O.2     1  UNL1       -0.2699
     11 C         138.8666  143.6630  154.9861 C.3     1  UNL1        0.1343
     12 C         139.6782  144.3585  153.9337 C.3     1  UNL1        0.0298
     13 C         132.9545  138.4238  158.1898 C.3     1  UNL1        0.0527
     14 C         133.2378  139.4819  157.1651 C.ar    1  UNL1        0.0665
     15 C         132.2138  140.2296  156.3635 C.ar    1  UNL1        0.0517
     16 S         132.9380  141.1881  155.4651 S.2     1  UNL1       -0.0633
     17 C         134.4094  141.0327  155.7115 C.ar    1  UNL1        0.1462
     18 N         134.5948  139.9783  156.7621 N.ar    1  UNL1       -0.2395
     19 C         141.1701  144.1837  158.1756 C.ar    1  UNL1        0.0536
     20 C         140.6489  145.1533  159.1945 C.ar    1  UNL1        0.0045
     21 C         141.1462  145.0949  160.6085 C.ar    1  UNL1        0.0006
     22 C         142.1647  144.0670  161.0035 C.ar    1  UNL1        0.0060
     23 C         142.6859  143.0974  159.9846 C.ar    1  UNL1        0.0006
     24 C         142.1886  143.1557  158.5707 C.ar    1  UNL1        0.0045
     25 C         142.6620  144.0087  162.4176 C.ar    1  UNL1        0.0295
     26 C         143.8747  144.7089  162.9553 C.ar    1  UNL1        0.0070
     27 C         143.9961  144.3729  164.4121 C.ar    1  UNL1        0.0075
     28 C         142.8584  143.4649  164.7748 C.ar    1  UNL1        0.0354
     29 S         142.0339  143.2399  163.5420 S.2     1  UNL1       -0.0864
@<TRIPOS>BOND
     1    13    14    1
     2    14    15   ar
     3    15    16   ar
     4    16    17   ar
     5    17     1    1
     6     1     2   ar
     7     2     3   ar
     8     3     4   ar
     9     4     5   ar
    10     5     6    1
    11     6     7    1
    12     7     8    1
    13     8     9   am
    14     9    10    2
    15     9    19    1
    16    19    20   ar
    17    20    21   ar
    18    21    22   ar
    19    22    25    1
    20    25    26   ar
    21    26    27   ar
    22    27    28   ar
    23    28    29   ar
    24    22    23   ar
    25    23    24   ar
    26     8    11    1
    27    11    12    1
    28    17    18   ar
    29    18    14   ar
    30     5     1   ar
    31    24    19   ar
    32    11     4    1
    33    29    25   ar
@<TRIPOS>MOLECULE
*****
 29 33 0 0 0
SMALL
GASTEIGER

@<TRIPOS>ATOM
      1 C         142.9840  137.4062  155.9616 C.ar    1  UNL1        0.1902
      2 N         143.2887  138.2485  154.7585 N.ar    1  UNL1       -0.1269
      3 N         143.5948  139.6387  155.2314 N.ar    1  UNL1       -0.1316
      4 C         143.4794  139.6555  156.7269 C.ar    1  UNL1        0.1615
      5 N         143.1019  138.2757  157.1782 N.ar    1  UNL1       -0.2940
      6 C         142.9143  137.9893  158.6386 C.3     1  UNL1        0.1302
      7 C         143.1042  139.0828  159.6478 C.3     1  UNL1        0.1186
      8 N         143.4817  140.4626  159.1965 N.am    1  UNL1       -0.2688
      9 C         143.6716  141.5560  160.2055 C.2     1  UNL1        0.2493
     10 O         144.0491  142.9358  159.7543 O.2     1  UNL1       -0.2699
     11 C         143.6693  140.7489  157.7360 C.3     1  UNL1        0.1343
     12 C         144.0468  142.1287  157.2847 C.3     1  UNL1        0.0298
     13 C         143.0443  132.2113  156.9054 C.3     1  UNL1        0.0527
     14 C         142.6523  133.5621  156.3841 C.ar    1  UNL1        0.0665
     15 C         141.4907  133.8558  155.4816 C.ar    1  UNL1        0.0517
     16 S         141.4736  135.3316  155.2135 S.2     1  UNL1       -0.0633
     17 C         142.6246  135.9499  155.9503 C.ar    1  UNL1        0.1462
     18 N         143.3531  134.8563  156.6737 N.ar    1  UNL1       -0.2395
     19 C         143.4840  141.2696  161.6659 C.ar    1  UNL1        0.0536
     20 C         142.1258  141.4040  162.2881 C.ar    1  UNL1        0.0045
     21 C         141.9382  141.1176  163.7486 C.ar    1  UNL1        0.0006
     22 C         143.1088  140.6969  164.5868 C.ar    1  UNL1        0.0060
     23 C         144.4671  140.5625  163.9646 C.ar    1  UNL1        0.0006
     24 C         144.6547  140.8489  162.5042 C.ar    1  UNL1        0.0045
     25 C         142.9213  140.4105  166.0472 C.ar    1  UNL1        0.0295
     26 C         142.8868  139.0519  166.6820 C.ar    1  UNL1        0.0070
     27 C         142.6795  139.2342  168.1563 C.ar    1  UNL1        0.0075
     28 C         142.5858  140.7055  168.4328 C.ar    1  UNL1        0.0354
     29 S         142.7353  141.4326  167.1293 S.2     1  UNL1       -0.0864
@<TRIPOS>BOND
     1    13    14    1
     2    14    15   ar
     3    15    16   ar
     4    16    17   ar
     5    17     1    1
     6     1     2   ar
     7     2     3   ar
     8     3     4   ar
     9     4     5   ar
    10     5     6    1
    11     6     7    1
    12     7     8    1
    13     8     9   am
    14     9    10    2
    15     9    19    1
    16    19    20   ar
    17    20    21   ar
    18    21    22   ar
    19    22    25    1
    20    25    26   ar
    21    26    27   ar
    22    27    28   ar
    23    28    29   ar
    24    22    23   ar
    25    23    24   ar
    26     8    11    1
    27    11    12    1
    28    17    18   ar
    29    18    14   ar
    30     5     1   ar
    31    24    19   ar
    32    11     4    1
    33    29    25   ar
@<TRIPOS>MOLECULE
*****
 29 33 0 0 0
SMALL
GASTEIGER

@<TRIPOS>ATOM
      1 C         140.6921  141.2357  158.0338 C.ar    1  UNL1        0.1902
      2 N         140.4403  142.4408  157.1769 N.ar    1  UNL1       -0.1269
      3 N         140.4646  143.6518  158.0616 N.ar    1  UNL1       -0.1316
      4 C         140.7314  143.1952  159.4653 C.ar    1  UNL1        0.1615
      5 N         140.8720  141.7019  159.4481 N.ar    1  UNL1       -0.2940
      6 C         141.1457  140.9597  160.7225 C.3     1  UNL1        0.1302
      7 C         141.2789  141.7108  162.0142 C.3     1  UNL1        0.1186
      8 N         141.1383  143.2041  162.0313 N.am    1  UNL1       -0.2688
      9 C         141.2714  143.9551  163.3229 C.2     1  UNL1        0.2493
     10 O         141.1308  145.4484  163.3401 O.2     1  UNL1       -0.2699
     11 C         140.8646  143.9463  160.7569 C.3     1  UNL1        0.1343
     12 C         140.7240  145.4396  160.7740 C.3     1  UNL1        0.0298
     13 C         142.4951  136.4358  156.7726 C.3     1  UNL1        0.0527
     14 C         141.5820  137.6076  156.9800 C.ar    1  UNL1        0.0665
     15 C         140.1126  137.6443  156.6804 C.ar    1  UNL1        0.0517
     16 S         139.6004  139.0079  157.0387 S.2     1  UNL1       -0.0633
     17 C         140.7532  139.8139  157.5597 C.ar    1  UNL1        0.1462
     18 N         141.9779  138.9485  157.5235 N.ar    1  UNL1       -0.2395
     19 C         141.5451  143.2129  164.5973 C.ar    1  UNL1        0.0536
     20 C         142.9567  142.8899  164.9888 C.ar    1  UNL1        0.0045
     21 C         143.2303  142.1476  166.2632 C.ar    1  UNL1        0.0006
     22 C         142.0925  141.7283  167.1461 C.ar    1  UNL1        0.0060
     23 C         140.6810  142.0513  166.7546 C.ar    1  UNL1        0.0006
     24 C         140.4073  142.7935  165.4802 C.ar    1  UNL1        0.0045
     25 C         142.3662  140.9860  168.4206 C.ar    1  UNL1        0.0295
     26 C         142.2240  139.5072  168.6276 C.ar    1  UNL1        0.0070
     27 C         142.6001  139.1995  170.0467 C.ar    1  UNL1        0.0075
     28 C         142.9746  140.4882  170.7168 C.ar    1  UNL1        0.0354
     29 S         142.8301  141.5924  169.7118 S.2     1  UNL1       -0.0864
@<TRIPOS>BOND
     1    13    14    1
     2    14    15   ar
     3    15    16   ar
     4    16    17   ar
     5    17     1    1
     6     1     2   ar
     7     2     3   ar
     8     3     4   ar
     9     4     5   ar
    10     5     6    1
    11     6     7    1
    12     7     8    1
    13     8     9   am
    14     9    10    2
    15     9    19    1
    16    19    20   ar
    17    20    21   ar
    18    21    22   ar
    19    22    25    1
    20    25    26   ar
    21    26    27   ar
    22    27    28   ar
    23    28    29   ar
    24    22    23   ar
    25    23    24   ar
    26     8    11    1
    27    11    12    1
    28    17    18   ar
    29    18    14   ar
    30     5     1   ar
    31    24    19   ar
    32    11     4    1
    33    29    25   ar
@<TRIPOS>MOLECULE
*****
 29 33 0 0 0
SMALL
GASTEIGER

@<TRIPOS>ATOM
      1 C         142.5640  132.5842  155.2682 C.ar    1  UNL1        0.1902
      2 N         141.6718  132.5781  154.0624 N.ar    1  UNL1       -0.1269
      3 N         141.0454  133.9357  153.9425 N.ar    1  UNL1       -0.1316
      4 C         141.5504  134.7809  155.0741 C.ar    1  UNL1        0.1615
      5 N         142.4890  133.9457  155.8934 N.ar    1  UNL1       -0.2940
      6 C         143.1541  134.5326  157.1030 C.3     1  UNL1        0.1302
      7 C         142.8805  135.9550  157.4933 C.3     1  UNL1        0.1186
      8 N         141.9419  136.7902  156.6739 N.am    1  UNL1       -0.2688
      9 C         141.6684  138.2125  157.0641 C.2     1  UNL1        0.2493
     10 O         140.7298  139.0478  156.2448 O.2     1  UNL1       -0.2699
     11 C         141.2768  136.2032  155.4643 C.3     1  UNL1        0.1343
     12 C         140.3382  137.0385  154.6449 C.3     1  UNL1        0.0298
     13 C         144.8301  129.0300  158.4481 C.3     1  UNL1        0.0527
     14 C         144.4284  129.7977  157.2237 C.ar    1  UNL1        0.0665
     15 C         144.8776  129.5170  155.8203 C.ar    1  UNL1        0.0517
     16 S         144.2338  130.5267  154.9169 S.2     1  UNL1       -0.0633
     17 C         143.3868  131.4314  155.7620 C.ar    1  UNL1        0.1462
     18 N         143.5071  130.9808  157.1877 N.ar    1  UNL1       -0.2395
     19 C         142.3335  138.7995  158.2737 C.ar    1  UNL1        0.0536
     20 C         141.9180  138.3589  159.6460 C.ar    1  UNL1        0.0045
     21 C         142.5832  138.9459  160.8556 C.ar    1  UNL1        0.0006
     22 C         143.6637  139.9735  160.6928 C.ar    1  UNL1        0.0060
     23 C         144.0791  140.4141  159.3205 C.ar    1  UNL1        0.0006
     24 C         143.4140  139.8271  158.1110 C.ar    1  UNL1        0.0045
     25 C         144.3288  140.5606  161.9024 C.ar    1  UNL1        0.0295
     26 C         144.5730  139.8556  163.2037 C.ar    1  UNL1        0.0070
     27 C         145.2616  140.8150  164.1286 C.ar    1  UNL1        0.0075
     28 C         145.4430  142.1129  163.3989 C.ar    1  UNL1        0.0354
     29 S         144.8665  141.9557  162.0230 S.2     1  UNL1       -0.0864
@<TRIPOS>BOND
     1    13    14    1
     2    14    15   ar
     3    15    16   ar
     4    16    17   ar
     5    17     1    1
     6     1     2   ar
     7     2     3   ar
     8     3     4   ar
     9     4     5   ar
    10     5     6    1
    11     6     7    1
    12     7     8    1
    13     8     9   am
    14     9    10    2
    15     9    19    1
    16    19    20   ar
    17    20    21   ar
    18    21    22   ar
    19    22    25    1
    20    25    26   ar
    21    26    27   ar
    22    27    28   ar
    23    28    29   ar
    24    22    23   ar
    25    23    24   ar
    26     8    11    1
    27    11    12    1
    28    17    18   ar
    29    18    14   ar
    30     5     1   ar
    31    24    19   ar
    32    11     4    1
    33    29    25   ar
@<TRIPOS>MOLECULE
*****
 29 33 0 0 0
SMALL
GASTEIGER

@<TRIPOS>ATOM
      1 C         141.6201  142.3659  157.5287 C.ar    1  UNL1        0.1902
      2 N         141.9884  141.2474  156.5995 N.ar    1  UNL1       -0.1269
      3 N         142.4007  140.0699  157.4322 N.ar    1  UNL1       -0.1316
      4 C         142.2873  140.4605  158.8760 C.ar    1  UNL1        0.1615
      5 N         141.8048  141.8796  158.9357 N.ar    1  UNL1       -0.2940
      6 C         141.5960  142.5456  160.2634 C.3     1  UNL1        0.1302
      7 C         141.8697  141.7925  161.5315 C.3     1  UNL1        0.1186
      8 N         142.3522  140.3735  161.4718 N.am    1  UNL1       -0.2688
      9 C         142.6259  139.6204  162.7399 C.2     1  UNL1        0.2493
     10 O         143.1083  138.2014  162.6802 O.2     1  UNL1       -0.2699
     11 C         142.5610  139.7075  160.1440 C.3     1  UNL1        0.1343
     12 C         143.0434  138.2885  160.0844 C.3     1  UNL1        0.0298
     13 C         138.6824  146.2832  155.5524 C.3     1  UNL1        0.0527
     14 C         139.7993  145.5315  156.2140 C.ar    1  UNL1        0.0665
     15 C         141.0520  146.1319  156.7801 C.ar    1  UNL1        0.0517
     16 S         141.8865  145.0190  157.3416 S.2     1  UNL1       -0.0633
     17 C         141.1496  143.7310  157.1224 C.ar    1  UNL1        0.1462
     18 N         139.8597  144.0478  156.4255 N.ar    1  UNL1       -0.2395
     19 C         142.4171  140.2864  164.0676 C.ar    1  UNL1        0.0536
     20 C         143.5039  141.1327  164.6613 C.ar    1  UNL1        0.0045
     21 C         143.2951  141.7987  165.9890 C.ar    1  UNL1        0.0006
     22 C         141.9995  141.6184  166.7230 C.ar    1  UNL1        0.0060
     23 C         140.9126  140.7721  166.1293 C.ar    1  UNL1        0.0006
     24 C         141.1214  140.1061  164.8016 C.ar    1  UNL1        0.0045
     25 C         141.7906  142.2844  168.0508 C.ar    1  UNL1        0.0295
     26 C         140.5304  142.9538  168.5129 C.ar    1  UNL1        0.0070
     27 C         140.7663  143.4810  169.8972 C.ar    1  UNL1        0.0075
     28 C         142.1724  143.1374  170.2907 C.ar    1  UNL1        0.0354
     29 S         142.8055  142.3978  169.1495 S.2     1  UNL1       -0.0864
@<TRIPOS>BOND
     1    13    14    1
     2    14    15   ar
     3    15    16   ar
     4    16    17   ar
     5    17     1    1
     6     1     2   ar
     7     2     3   ar
     8     3     4   ar
     9     4     5   ar
    10     5     6    1
    11     6     7    1
    12     7     8    1
    13     8     9   am
    14     9    10    2
    15     9    19    1
    16    19    20   ar
    17    20    21   ar
    18    21    22   ar
    19    22    25    1
    20    25    26   ar
    21    26    27   ar
    22    27    28   ar
    23    28    29   ar
    24    22    23   ar
    25    23    24   ar
    26     8    11    1
    27    11    12    1
    28    17    18   ar
    29    18    14   ar
    30     5     1   ar
    31    24    19   ar
    32    11     4    1
    33    29    25   ar
