@<TRIPOS>MOLECULE
*****
 29 31 0 0 0
SMALL
GASTEIGER

@<TRIPOS>ATOM
      1 C         140.6124  137.3402  163.5323 C.3     1  UNL1        0.0722
      2 N         140.6320  138.1364  164.8033 N.3     1  UNL1       -0.2698
      3 C         139.3428  138.5525  165.4476 C.3     1  UNL1        0.0938
      4 C         139.3624  139.3487  166.7187 C.3     1  UNL1        0.1081
      5 N         140.6711  139.7289  167.3455 N.pl3   1  UNL1       -0.3040
      6 C         141.9602  139.3128  166.7012 C.3     1  UNL1        0.1081
      7 C         141.9406  138.5166  165.4301 C.3     1  UNL1        0.0938
      8 C         140.6907  140.5251  168.6166 C.ar    1  UNL1        0.0594
      9 C         140.8658  139.8301  169.9343 C.ar    1  UNL1        0.0154
     10 C         140.8854  140.6263  171.2054 C.ar    1  UNL1        0.0022
     11 C         140.7298  142.1175  171.1587 C.ar    1  UNL1        0.0123
     12 C         140.5548  142.8125  169.8410 C.ar    1  UNL1        0.0694
     13 CL        140.3993  144.3036  169.7944 Cl      1  UNL1       -0.0813
     14 C         140.5352  142.0162  168.5700 C.ar    1  UNL1        0.0815
     15 CL        140.3601  142.7112  167.2523 Cl      1  UNL1       -0.0801
     16 C         140.0612  137.9465  162.2759 C.3     1  UNL1        0.0173
     17 C         142.8243  138.9887  158.8804 C.3     1  UNL1        0.0730
     18 C         143.3643  138.3150  160.1070 C.3     1  UNL1        0.0196
     19 C         142.4432  137.9676  161.2388 C.3     1  UNL1        0.0017
     20 C         140.9823  138.2939  161.1440 C.3     1  UNL1        0.0015
     21 C         140.4423  138.9675  159.9174 C.3     1  UNL1        0.0017
     22 C         141.3633  139.3149  158.7856 C.3     1  UNL1        0.0196
     23 C         146.1433  142.2947  156.6321 C.3     1  UNL1        0.1165
     24 N         145.4048  140.9891  156.6244 N.am    1  UNL1       -0.2607
     25 C         145.5874  140.0309  155.4849 C.3     1  UNL1        0.1165
     26 C         144.4838  140.6417  157.7562 C.2     1  UNL1        0.3040
     27 O         144.3012  141.5999  158.8958 O.2     1  UNL1       -0.2526
     28 N         143.7453  139.3361  157.7486 N.am    1  UNL1       -0.2904
     29 H         143.8652  138.7072  157.0007 H       1  UNL1        0.1509
@<TRIPOS>BOND
     1    23    24    1
     2    24    25    1
     3    24    26   am
     4    26    27    2
     5    26    28   am
     6    17    28    1
     7    17    18    1
     8    18    19    1
     9    19    20    1
    10    20    16    1
    11    16     1    1
    12     1     2    1
    13     2     3    1
    14     3     4    1
    15     4     5    1
    16     5     8    1
    17     8     9   ar
    18     9    10   ar
    19    10    11   ar
    20    11    12   ar
    21    12    13    1
    22    12    14   ar
    23    14    15    1
    24     5     6    1
    25     6     7    1
    26    20    21    1
    27    21    22    1
    28    22    17    1
    29     7     2    1
    30    14     8   ar
    31    28    29    1
@<TRIPOS>MOLECULE
*****
 29 31 0 0 0
SMALL
GASTEIGER

@<TRIPOS>ATOM
      1 C         139.7941  137.6300  163.3436 C.3     1  UNL1        0.0722
      2 N         139.9594  138.3664  164.6399 N.3     1  UNL1       -0.2698
      3 C         138.7536  138.7331  165.4533 C.3     1  UNL1        0.0938
      4 C         138.9189  139.4695  166.7495 C.3     1  UNL1        0.1081
      5 N         140.2901  139.8392  167.2325 N.pl3   1  UNL1       -0.3040
      6 C         141.4959  139.4725  166.4191 C.3     1  UNL1        0.1081
      7 C         141.3306  138.7361  165.1228 C.3     1  UNL1        0.0938
      8 C         140.4555  140.5756  168.5288 C.ar    1  UNL1        0.0594
      9 C         140.6589  139.8126  169.8041 C.ar    1  UNL1        0.0154
     10 C         140.8242  140.5490  171.1004 C.ar    1  UNL1        0.0022
     11 C         140.7862  142.0484  171.1213 C.ar    1  UNL1        0.0123
     12 C         140.5828  142.8113  169.8460 C.ar    1  UNL1        0.0694
     13 CL        140.5447  144.3107  169.8670 Cl      1  UNL1       -0.0813
     14 C         140.4174  142.0749  168.5497 C.ar    1  UNL1        0.0815
     15 CL        140.2140  142.8379  167.2744 Cl      1  UNL1       -0.0801
     16 C         138.7124  138.0320  162.3853 C.3     1  UNL1        0.0173
     17 C         139.5678  141.0600  159.1682 C.3     1  UNL1        0.0730
     18 C         138.1541  140.6470  159.4527 C.3     1  UNL1        0.0196
     19 C         137.8690  139.6376  160.5251 C.3     1  UNL1        0.0017
     20 C         138.9975  139.0413  161.3130 C.3     1  UNL1        0.0015
     21 C         140.4112  139.4543  161.0285 C.3     1  UNL1        0.0017
     22 C         140.6963  140.4637  159.9561 C.3     1  UNL1        0.0196
     23 C         140.0526  146.0090  157.6607 C.3     1  UNL1        0.1165
     24 N         140.0953  144.5438  157.3421 N.am    1  UNL1       -0.2607
     25 C         140.4231  144.0880  155.9512 C.3     1  UNL1        0.1165
     26 C         139.8102  143.5344  158.4144 C.2     1  UNL1        0.3040
     27 O         139.4824  143.9903  159.8054 O.2     1  UNL1       -0.2526
     28 N         139.8529  142.0693  158.0959 N.am    1  UNL1       -0.2904
     29 H         140.0680  141.7701  157.1829 H       1  UNL1        0.1509
@<TRIPOS>BOND
     1    23    24    1
     2    24    25    1
     3    24    26   am
     4    26    27    2
     5    26    28   am
     6    17    28    1
     7    17    18    1
     8    18    19    1
     9    19    20    1
    10    20    16    1
    11    16     1    1
    12     1     2    1
    13     2     3    1
    14     3     4    1
    15     4     5    1
    16     5     8    1
    17     8     9   ar
    18     9    10   ar
    19    10    11   ar
    20    11    12   ar
    21    12    13    1
    22    12    14   ar
    23    14    15    1
    24     5     6    1
    25     6     7    1
    26    20    21    1
    27    21    22    1
    28    22    17    1
    29     7     2    1
    30    14     8   ar
    31    28    29    1
@<TRIPOS>MOLECULE
*****
 29 31 0 0 0
SMALL
GASTEIGER

@<TRIPOS>ATOM
      1 C         141.3429  137.4357  163.4195 C.3     1  UNL1        0.0722
      2 N         141.2435  138.1950  164.7092 N.3     1  UNL1       -0.2698
      3 C         142.4860  138.5305  165.4798 C.3     1  UNL1        0.0938
      4 C         142.3866  139.2898  166.7695 C.3     1  UNL1        0.1081
      5 N         141.0446  139.7138  167.2887 N.pl3   1  UNL1       -0.3040
      6 C         139.8022  139.3784  166.5182 C.3     1  UNL1        0.1081
      7 C         139.9016  138.6190  165.2284 C.3     1  UNL1        0.0938
      8 C         140.9452  140.4732  168.5785 C.ar    1  UNL1        0.0594
      9 C         141.0661  139.7489  169.8865 C.ar    1  UNL1        0.0154
     10 C         140.9667  140.5083  171.1763 C.ar    1  UNL1        0.0022
     11 C         140.7464  141.9920  171.1580 C.ar    1  UNL1        0.0123
     12 C         140.6255  142.7162  169.8500 C.ar    1  UNL1        0.0694
     13 CL        140.4051  144.1998  169.8318 Cl      1  UNL1       -0.0813
     14 C         140.7249  141.9568  168.5602 C.ar    1  UNL1        0.0815
     15 CL        140.6039  142.6810  167.2523 Cl      1  UNL1       -0.0801
     16 C         141.8203  138.1271  162.1769 C.3     1  UNL1        0.0173
     17 C         138.8483  139.5673  159.1203 C.3     1  UNL1        0.0730
     18 C         138.4832  139.5581  160.5751 C.3     1  UNL1        0.0196
     19 C         139.4739  139.0780  161.5940 C.3     1  UNL1        0.0017
     20 C         140.8296  138.6071  161.1581 C.3     1  UNL1        0.0015
     21 C         141.1947  138.6163  159.7032 C.3     1  UNL1        0.0017
     22 C         140.2041  139.0964  158.6843 C.3     1  UNL1        0.0196
     23 C         137.1048  143.2938  155.9465 C.3     1  UNL1        0.1165
     24 N         136.9859  141.9106  156.5145 N.am    1  UNL1       -0.2607
     25 C         135.8763  141.0075  156.0636 C.3     1  UNL1        0.1165
     26 C         137.9765  141.4305  157.5334 C.2     1  UNL1        0.3040
     27 O         139.0861  142.3337  157.9843 O.2     1  UNL1       -0.2526
     28 N         137.8577  140.0474  158.1014 N.am    1  UNL1       -0.2904
     29 H         137.1294  139.4546  157.8055 H       1  UNL1        0.1509
@<TRIPOS>BOND
     1    23    24    1
     2    24    25    1
     3    24    26   am
     4    26    27    2
     5    26    28   am
     6    17    28    1
     7    17    18    1
     8    18    19    1
     9    19    20    1
    10    20    16    1
    11    16     1    1
    12     1     2    1
    13     2     3    1
    14     3     4    1
    15     4     5    1
    16     5     8    1
    17     8     9   ar
    18     9    10   ar
    19    10    11   ar
    20    11    12   ar
    21    12    13    1
    22    12    14   ar
    23    14    15    1
    24     5     6    1
    25     6     7    1
    26    20    21    1
    27    21    22    1
    28    22    17    1
    29     7     2    1
    30    14     8   ar
    31    28    29    1
@<TRIPOS>MOLECULE
*****
 29 31 0 0 0
SMALL
GASTEIGER

@<TRIPOS>ATOM
      1 C         138.2955  138.2414  162.2253 C.3     1  UNL1        0.0722
      2 N         138.7024  139.4886  161.4981 N.3     1  UNL1       -0.2698
      3 C         139.9043  139.4752  160.6007 C.3     1  UNL1        0.0938
      4 C         140.3112  140.7225  159.8735 C.3     1  UNL1        0.1081
      5 N         139.5162  141.9831  160.0437 N.pl3   1  UNL1       -0.3040
      6 C         138.3143  141.9964  160.9411 C.3     1  UNL1        0.1081
      7 C         137.9074  140.7492  161.6683 C.3     1  UNL1        0.0938
      8 C         139.9231  143.2303  159.3165 C.ar    1  UNL1        0.0594
      9 C         140.8646  144.2024  159.9636 C.ar    1  UNL1        0.0154
     10 C         141.2715  145.4497  159.2364 C.ar    1  UNL1        0.0022
     11 C         140.7369  145.7248  157.8621 C.ar    1  UNL1        0.0123
     12 C         139.7954  144.7527  157.2151 C.ar    1  UNL1        0.0694
     13 CL        139.2608  145.0278  155.8409 Cl      1  UNL1       -0.0813
     14 C         139.3885  143.5055  157.9423 C.ar    1  UNL1        0.0815
     15 CL        138.4470  142.5334  157.2953 Cl      1  UNL1       -0.0801
     16 C         139.2266  137.6164  163.2214 C.3     1  UNL1        0.0173
     17 C         140.0114  139.6554  167.1555 C.3     1  UNL1        0.0730
     18 C         141.1435  139.3955  166.2064 C.3     1  UNL1        0.0196
     19 C         140.8819  138.7158  164.8951 C.3     1  UNL1        0.0017
     20 C         139.4882  138.2960  164.5328 C.3     1  UNL1        0.0015
     21 C         138.3561  138.5559  165.4818 C.3     1  UNL1        0.0017
     22 C         138.6177  139.2356  166.7931 C.3     1  UNL1        0.0196
     23 C         140.6829  144.0081  169.9129 C.3     1  UNL1        0.1165
     24 N         140.6087  142.5114  169.8455 N.am    1  UNL1       -0.2607
     25 C         140.7961  141.6945  171.0895 C.3     1  UNL1        0.1165
     26 C         140.3471  141.8317  168.5342 C.2     1  UNL1        0.3040
     27 O         140.1598  142.6487  167.2902 O.2     1  UNL1       -0.2526
     28 N         140.2729  140.3351  168.4668 N.am    1  UNL1       -0.2904
     29 H         140.3959  139.7989  169.2833 H       1  UNL1        0.1509
@<TRIPOS>BOND
     1    23    24    1
     2    24    25    1
     3    24    26   am
     4    26    27    2
     5    26    28   am
     6    17    28    1
     7    17    18    1
     8    18    19    1
     9    19    20    1
    10    20    16    1
    11    16     1    1
    12     1     2    1
    13     2     3    1
    14     3     4    1
    15     4     5    1
    16     5     8    1
    17     8     9   ar
    18     9    10   ar
    19    10    11   ar
    20    11    12   ar
    21    12    13    1
    22    12    14   ar
    23    14    15    1
    24     5     6    1
    25     6     7    1
    26    20    21    1
    27    21    22    1
    28    22    17    1
    29     7     2    1
    30    14     8   ar
    31    28    29    1
@<TRIPOS>MOLECULE
*****
 29 31 0 0 0
SMALL
GASTEIGER

@<TRIPOS>ATOM
      1 C         142.4845  138.0958  157.0417 C.3     1  UNL1        0.0722
      2 N         141.8186  138.2541  158.3764 N.3     1  UNL1       -0.2698
      3 C         142.6444  138.2758  159.6286 C.3     1  UNL1        0.0938
      4 C         141.9786  138.4341  160.9634 C.3     1  UNL1        0.1081
      5 N         140.4870  138.5706  161.0460 N.pl3   1  UNL1       -0.3040
      6 C         139.6614  138.5488  159.7939 C.3     1  UNL1        0.1081
      7 C         140.3272  138.3906  158.4591 C.3     1  UNL1        0.0938
      8 C         139.8212  138.7288  162.3808 C.ar    1  UNL1        0.0594
      9 C         139.6500  137.5398  163.2792 C.ar    1  UNL1        0.0154
     10 C         138.9841  137.6981  164.6140 C.ar    1  UNL1        0.0022
     11 C         138.4896  139.0454  165.0504 C.ar    1  UNL1        0.0123
     12 C         138.6608  140.2343  164.1520 C.ar    1  UNL1        0.0694
     13 CL        138.1662  141.5814  164.5884 Cl      1  UNL1       -0.0813
     14 C         139.3266  140.0760  162.8172 C.ar    1  UNL1        0.0815
     15 CL        139.4979  141.2649  161.9188 Cl      1  UNL1       -0.0801
     16 C         142.0103  137.0401  156.0874 C.3     1  UNL1        0.0173
     17 C         142.8690  132.7025  156.9227 C.3     1  UNL1        0.0730
     18 C         141.9009  133.0807  155.8411 C.3     1  UNL1        0.0196
     19 C         141.6147  134.5265  155.5627 C.3     1  UNL1        0.0017
     20 C         142.2965  135.5942  156.3659 C.3     1  UNL1        0.0015
     21 C         143.2645  135.2161  157.4475 C.3     1  UNL1        0.0017
     22 C         143.5508  133.7702  157.7259 C.3     1  UNL1        0.0196
     23 C         145.1707  128.2353  155.6013 C.3     1  UNL1        0.1165
     24 N         144.3061  129.0230  156.5405 N.am    1  UNL1       -0.2607
     25 C         143.7277  128.3649  157.7579 C.3     1  UNL1        0.1165
     26 C         144.0198  130.4689  156.2621 C.2     1  UNL1        0.3040
     27 O         144.5982  131.1270  155.0445 O.2     1  UNL1       -0.2526
     28 N         143.1552  131.2566  157.2011 N.am    1  UNL1       -0.2904
     29 H         142.7756  130.8247  158.0002 H       1  UNL1        0.1509
@<TRIPOS>BOND
     1    23    24    1
     2    24    25    1
     3    24    26   am
     4    26    27    2
     5    26    28   am
     6    17    28    1
     7    17    18    1
     8    18    19    1
     9    19    20    1
    10    20    16    1
    11    16     1    1
    12     1     2    1
    13     2     3    1
    14     3     4    1
    15     4     5    1
    16     5     8    1
    17     8     9   ar
    18     9    10   ar
    19    10    11   ar
    20    11    12   ar
    21    12    13    1
    22    12    14   ar
    23    14    15    1
    24     5     6    1
    25     6     7    1
    26    20    21    1
    27    21    22    1
    28    22    17    1
    29     7     2    1
    30    14     8   ar
    31    28    29    1
@<TRIPOS>MOLECULE
*****
 29 31 0 0 0
SMALL
GASTEIGER

@<TRIPOS>ATOM
      1 C         144.8449  141.0744  163.1509 C.3     1  UNL1        0.0722
      2 N         144.1537  140.9880  164.4794 N.3     1  UNL1       -0.2698
      3 C         143.7923  139.6491  165.0511 C.3     1  UNL1        0.0938
      4 C         143.1010  139.5626  166.3795 C.3     1  UNL1        0.1081
      5 N         142.7712  140.8151  167.1362 N.pl3   1  UNL1       -0.3040
      6 C         143.1326  142.1539  166.5645 C.3     1  UNL1        0.1081
      7 C         143.8238  142.2404  165.2361 C.3     1  UNL1        0.0938
      8 C         142.0799  140.7287  168.4646 C.ar    1  UNL1        0.0594
      9 C         142.8706  140.8665  169.7319 C.ar    1  UNL1        0.0154
     10 C         142.1793  140.7801  171.0603 C.ar    1  UNL1        0.0022
     11 C         140.6974  140.5558  171.1215 C.ar    1  UNL1        0.0123
     12 C         139.9068  140.4179  169.8542 C.ar    1  UNL1        0.0694
     13 CL        138.4250  140.1936  169.9154 Cl      1  UNL1       -0.0813
     14 C         140.5981  140.5044  168.5258 C.ar    1  UNL1        0.0815
     15 CL        139.8075  140.3665  167.2586 Cl      1  UNL1       -0.0801
     16 C         144.9724  142.3978  162.4565 C.3     1  UNL1        0.0173
     17 C         142.0876  143.5104  159.1870 C.3     1  UNL1        0.0730
     18 C         141.8385  143.9663  160.5942 C.3     1  UNL1        0.0196
     19 C         142.8002  143.5955  161.6840 C.3     1  UNL1        0.0017
     20 C         144.0108  142.7687  161.3667 C.3     1  UNL1        0.0015
     21 C         144.2598  142.3128  159.9596 C.3     1  UNL1        0.0017
     22 C         143.2982  142.6837  158.8697 C.3     1  UNL1        0.0196
     23 C         140.4508  146.8770  155.5833 C.3     1  UNL1        0.1165
     24 N         140.3075  145.5646  156.2953 N.am    1  UNL1       -0.2607
     25 C         139.2027  144.6230  155.9175 C.3     1  UNL1        0.1165
     26 C         141.2692  145.1937  157.3852 C.2     1  UNL1        0.3040
     27 O         142.3741  146.1353  157.7629 O.2     1  UNL1       -0.2526
     28 N         141.1259  143.8813  158.0972 N.am    1  UNL1       -0.2904
     29 H         140.4008  143.2633  157.8493 H       1  UNL1        0.1509
@<TRIPOS>BOND
     1    23    24    1
     2    24    25    1
     3    24    26   am
     4    26    27    2
     5    26    28   am
     6    17    28    1
     7    17    18    1
     8    18    19    1
     9    19    20    1
    10    20    16    1
    11    16     1    1
    12     1     2    1
    13     2     3    1
    14     3     4    1
    15     4     5    1
    16     5     8    1
    17     8     9   ar
    18     9    10   ar
    19    10    11   ar
    20    11    12   ar
    21    12    13    1
    22    12    14   ar
    23    14    15    1
    24     5     6    1
    25     6     7    1
    26    20    21    1
    27    21    22    1
    28    22    17    1
    29     7     2    1
    30    14     8   ar
    31    28    29    1
@<TRIPOS>MOLECULE
*****
 29 31 0 0 0
SMALL
GASTEIGER

@<TRIPOS>ATOM
      1 C         138.5928  139.0533  162.7816 C.3     1  UNL1        0.0722
      2 N         139.1444  139.6967  164.0192 N.3     1  UNL1       -0.2698
      3 C         138.6341  139.2866  165.3689 C.3     1  UNL1        0.0938
      4 C         139.1858  139.9300  166.6065 C.3     1  UNL1        0.1081
      5 N         140.2478  140.9835  166.4945 N.pl3   1  UNL1       -0.3040
      6 C         140.7580  141.3935  165.1448 C.3     1  UNL1        0.1081
      7 C         140.2064  140.7501  163.9072 C.3     1  UNL1        0.0938
      8 C         140.7995  141.6269  167.7321 C.ar    1  UNL1        0.0594
      9 C         140.1886  142.8932  168.2551 C.ar    1  UNL1        0.0154
     10 C         140.7403  143.5366  169.4927 C.ar    1  UNL1        0.0022
     11 C         141.9028  142.9137  170.2073 C.ar    1  UNL1        0.0123
     12 C         142.5136  141.6475  169.6843 C.ar    1  UNL1        0.0694
     13 CL        143.6760  141.0247  170.3989 Cl      1  UNL1       -0.0813
     14 C         141.9619  141.0041  168.4467 C.ar    1  UNL1        0.0815
     15 CL        142.5727  139.7379  167.9237 Cl      1  UNL1       -0.0801
     16 C         139.3597  137.9595  162.0994 C.3     1  UNL1        0.0173
     17 C         142.4188  138.9771  158.9598 C.3     1  UNL1        0.0730
     18 C         140.9635  139.2302  158.6989 C.3     1  UNL1        0.0196
     19 C         139.9438  138.8910  159.7454 C.3     1  UNL1        0.0017
     20 C         140.3794  138.2987  161.0528 C.3     1  UNL1        0.0015
     21 C         141.8346  138.0457  161.3138 C.3     1  UNL1        0.0017
     22 C         142.8543  138.3849  160.2673 C.3     1  UNL1        0.0196
     23 C         145.9550  142.2512  157.0166 C.3     1  UNL1        0.1165
     24 N         145.2065  140.9533  156.9417 N.am    1  UNL1       -0.2607
     25 C         145.4778  139.9948  155.8203 C.3     1  UNL1        0.1165
     26 C         144.1868  140.6141  157.9882 C.2     1  UNL1        0.3040
     27 O         143.9156  141.5728  159.1096 O.2     1  UNL1       -0.2526
     28 N         143.4384  139.3164  157.9133 N.am    1  UNL1       -0.2904
     29 H         143.6165  138.6872  157.1773 H       1  UNL1        0.1509
@<TRIPOS>BOND
     1    23    24    1
     2    24    25    1
     3    24    26   am
     4    26    27    2
     5    26    28   am
     6    17    28    1
     7    17    18    1
     8    18    19    1
     9    19    20    1
    10    20    16    1
    11    16     1    1
    12     1     2    1
    13     2     3    1
    14     3     4    1
    15     4     5    1
    16     5     8    1
    17     8     9   ar
    18     9    10   ar
    19    10    11   ar
    20    11    12   ar
    21    12    13    1
    22    12    14   ar
    23    14    15    1
    24     5     6    1
    25     6     7    1
    26    20    21    1
    27    21    22    1
    28    22    17    1
    29     7     2    1
    30    14     8   ar
    31    28    29    1
@<TRIPOS>MOLECULE
*****
 29 31 0 0 0
SMALL
GASTEIGER

@<TRIPOS>ATOM
      1 C         140.0022  145.6578  161.2725 C.3     1  UNL1        0.0722
      2 N         139.7906  144.5830  162.2973 N.3     1  UNL1       -0.2698
      3 C         140.6565  143.3582  162.2893 C.3     1  UNL1        0.0938
      4 C         140.4449  142.2835  163.3141 C.3     1  UNL1        0.1081
      5 N         139.3674  142.4336  164.3469 N.pl3   1  UNL1       -0.3040
      6 C         138.5015  143.6584  164.3548 C.3     1  UNL1        0.1081
      7 C         138.7131  144.7331  163.3300 C.3     1  UNL1        0.0938
      8 C         139.1558  141.3589  165.3717 C.ar    1  UNL1        0.0594
      9 C         138.2306  140.2150  165.0788 C.ar    1  UNL1        0.0154
     10 C         138.0190  139.1403  166.1036 C.ar    1  UNL1        0.0022
     11 C         138.7325  139.2095  167.4213 C.ar    1  UNL1        0.0123
     12 C         139.6576  140.3534  167.7141 C.ar    1  UNL1        0.0694
     13 CL        140.3711  140.4225  169.0317 Cl      1  UNL1       -0.0813
     14 C         139.8692  141.4281  166.6893 C.ar    1  UNL1        0.0815
     15 CL        140.7943  142.5719  166.9821 Cl      1  UNL1       -0.0801
     16 C         141.0201  145.4691  160.1871 C.3     1  UNL1        0.0173
     17 C         139.7178  144.1582  156.0840 C.3     1  UNL1        0.0730
     18 C         139.4890  143.2626  157.2653 C.3     1  UNL1        0.0196
     19 C         139.9231  143.6996  158.6330 C.3     1  UNL1        0.0017
     20 C         140.5860  145.0321  158.8194 C.3     1  UNL1        0.0015
     21 C         140.8148  145.9277  157.6381 C.3     1  UNL1        0.0017
     22 C         140.3807  145.4907  156.2704 C.3     1  UNL1        0.0196
     23 C         135.9984  143.6521  152.4909 C.3     1  UNL1        0.1165
     24 N         137.4240  143.4681  152.9198 N.am    1  UNL1       -0.2607
     25 C         138.4155  142.8472  151.9809 C.3     1  UNL1        0.1165
     26 C         137.8582  143.9051  154.2874 C.2     1  UNL1        0.3040
     27 O         136.8666  144.5260  155.2263 O.2     1  UNL1       -0.2526
     28 N         139.2837  143.7212  154.7163 N.am    1  UNL1       -0.2904
     29 H         139.9344  143.3137  154.1001 H       1  UNL1        0.1509
@<TRIPOS>BOND
     1    23    24    1
     2    24    25    1
     3    24    26   am
     4    26    27    2
     5    26    28   am
     6    17    28    1
     7    17    18    1
     8    18    19    1
     9    19    20    1
    10    20    16    1
    11    16     1    1
    12     1     2    1
    13     2     3    1
    14     3     4    1
    15     4     5    1
    16     5     8    1
    17     8     9   ar
    18     9    10   ar
    19    10    11   ar
    20    11    12   ar
    21    12    13    1
    22    12    14   ar
    23    14    15    1
    24     5     6    1
    25     6     7    1
    26    20    21    1
    27    21    22    1
    28    22    17    1
    29     7     2    1
    30    14     8   ar
    31    28    29    1
@<TRIPOS>MOLECULE
*****
 29 31 0 0 0
SMALL
GASTEIGER

@<TRIPOS>ATOM
      1 C         144.2218  142.9307  162.5917 C.3     1  UNL1        0.0722
      2 N         143.4552  142.5076  163.8097 N.3     1  UNL1       -0.2698
      3 C         143.8306  141.2475  164.5319 C.3     1  UNL1        0.0938
      4 C         143.0641  140.8244  165.7498 C.3     1  UNL1        0.1081
      5 N         141.9222  141.6614  166.2456 N.pl3   1  UNL1       -0.3040
      6 C         141.5469  142.9214  165.5234 C.3     1  UNL1        0.1081
      7 C         142.3134  143.3445  164.3055 C.3     1  UNL1        0.0938
      8 C         141.1557  141.2383  167.4636 C.ar    1  UNL1        0.0594
      9 C         139.9279  140.3886  167.3194 C.ar    1  UNL1        0.0154
     10 C         139.1614  139.9656  168.5374 C.ar    1  UNL1        0.0022
     11 C         139.6226  140.3921  169.8995 C.ar    1  UNL1        0.0123
     12 C         140.8504  141.2418  170.0436 C.ar    1  UNL1        0.0694
     13 CL        141.3115  141.6683  171.4057 Cl      1  UNL1       -0.0813
     14 C         141.6169  141.6649  168.8257 C.ar    1  UNL1        0.0815
     15 CL        142.8446  142.5145  168.9698 Cl      1  UNL1       -0.0801
     16 C         143.8359  142.4026  161.2418 C.3     1  UNL1        0.0173
     17 C         141.5016  144.9916  158.3961 C.3     1  UNL1        0.0730
     18 C         141.1800  145.0083  159.8611 C.3     1  UNL1        0.0196
     19 C         141.9581  144.1453  160.8097 C.3     1  UNL1        0.0017
     20 C         143.0578  143.2656  160.2932 C.3     1  UNL1        0.0015
     21 C         143.3794  143.2490  158.8283 C.3     1  UNL1        0.0017
     22 C         142.6013  144.1120  157.8797 C.3     1  UNL1        0.0196
     23 C         137.7200  145.5319  154.8737 C.3     1  UNL1        0.1165
     24 N         138.8327  146.1248  155.6863 N.am    1  UNL1       -0.2607
     25 C         139.1673  147.5806  155.5504 C.3     1  UNL1        0.1165
     26 C         139.6108  145.2618  156.6349 C.2     1  UNL1        0.3040
     27 O         139.2762  143.8059  156.7708 O.2     1  UNL1       -0.2526
     28 N         140.7235  145.8546  157.4475 N.am    1  UNL1       -0.2904
     29 H         140.9431  146.8102  157.3584 H       1  UNL1        0.1509
@<TRIPOS>BOND
     1    23    24    1
     2    24    25    1
     3    24    26   am
     4    26    27    2
     5    26    28   am
     6    17    28    1
     7    17    18    1
     8    18    19    1
     9    19    20    1
    10    20    16    1
    11    16     1    1
    12     1     2    1
    13     2     3    1
    14     3     4    1
    15     4     5    1
    16     5     8    1
    17     8     9   ar
    18     9    10   ar
    19    10    11   ar
    20    11    12   ar
    21    12    13    1
    22    12    14   ar
    23    14    15    1
    24     5     6    1
    25     6     7    1
    26    20    21    1
    27    21    22    1
    28    22    17    1
    29     7     2    1
    30    14     8   ar
    31    28    29    1
