@<TRIPOS>MOLECULE
*****
 46 50 0 0 0
SMALL
GASTEIGER

@<TRIPOS>ATOM
      1 N         140.6263  139.7191  162.7886 N.am    1  UNL1       -0.2523
      2 C         140.9420  138.3311  163.2617 C.2     1  UNL1        0.2342
      3 O         140.6926  137.1571  162.3618 O.2     1  UNL1       -0.2742
      4 C         141.5070  138.1170  164.6346 C.3     1  UNL1        0.1118
      5 C         141.7564  139.2910  165.5345 C.ar    1  UNL1       -0.0119
      6 C         142.3214  139.0770  166.9073 C.ar    1  UNL1        0.0360
      7 C         142.5708  140.2509  167.8071 C.ar    1  UNL1        0.1721
      8 C         142.2551  141.6389  167.3340 C.ar    1  UNL1        0.1718
      9 C         141.6901  141.8529  165.9611 C.ar    1  UNL1        0.0374
     10 C         141.4407  140.6790  165.0613 C.ar    1  UNL1       -0.0000
     11 C         140.8756  140.8930  163.6884 C.3     1  UNL1        0.1245
     12 C         140.5600  142.2810  163.2153 C.ar    1  UNL1        0.0003
     13 C         141.6240  143.1097  162.5585 C.ar    1  UNL1       -0.0015
     14 C         141.3083  144.4977  162.0854 C.ar    1  UNL1        0.0111
     15 C         139.9286  145.0570  162.2690 C.ar    1  UNL1        0.0577
     16 CL        139.6129  146.4450  161.7959 Cl      1  UNL1       -0.0822
     17 C         138.8647  144.2283  162.9258 C.ar    1  UNL1        0.0111
     18 C         139.1803  142.8403  163.3989 C.ar    1  UNL1       -0.0015
     19 C         138.9310  140.3611  158.6699 C.ar    1  UNL1        0.0480
     20 C         140.4092  140.4744  158.8986 C.ar    1  UNL1        0.0158
     21 C         140.9742  140.2604  160.2714 C.ar    1  UNL1        0.0162
     22 C         140.0612  139.9331  161.4156 C.ar    1  UNL1        0.0545
     23 C         138.5831  139.8198  161.1869 C.ar    1  UNL1        0.0162
     24 C         138.0180  140.0338  159.8141 C.ar    1  UNL1        0.0158
     25 N         138.3660  140.5751  157.2969 N.pl3   1  UNL1       -0.3058
     26 C         138.8049  139.7000  156.1604 C.3     1  UNL1        0.1122
     27 C         137.3620  141.6641  157.0605 C.3     1  UNL1        0.0908
     28 C         138.6358  145.5137  155.1090 C.3     1  UNL1        0.0716
     29 C         139.5273  144.8540  156.1189 C.3     1  UNL1        0.0196
     30 C         139.1027  143.5707  156.7695 C.3     1  UNL1        0.0034
     31 C         137.7866  142.9473  156.4100 C.3     1  UNL1        0.0199
     32 C         136.8951  143.6071  155.4000 C.3     1  UNL1        0.0034
     33 C         137.3197  144.8903  154.7496 C.3     1  UNL1        0.0196
     34 C         139.1326  148.0590  155.2659 C.2     1  UNL1        0.2224
     35 O         138.7802  148.0379  156.7238 O.2     1  UNL1       -0.2751
     36 N         139.0604  146.7969  154.4585 N.am    1  UNL1       -0.3060
     37 H         139.2917  146.8108  153.5016 H       1  UNL1        0.1494
     38 C         139.9045  149.3644  153.1564 C.3     1  UNL1        0.0101
     39 C         139.5572  149.3422  154.6154 C.3     1  UNL1        0.0851
     40 O         143.1359  140.0369  169.1801 O.3     1  UNL1       -0.4684
     41 C         142.4951  139.0488  170.1092 C.3     1  UNL1        0.2526
     42 O         142.5045  142.8129  168.2339 O.3     1  UNL1       -0.4761
     43 C         141.8163  142.8978  169.5640 C.3     1  UNL1        0.1662
     44 C         142.6244  143.0556  170.8178 C.3     1  UNL1        0.0472
     45 C         140.3200  142.8250  169.6402 C.3     1  UNL1        0.0435
     46 C         139.6473  141.5198  169.9468 C.3     1  UNL1        0.0038
@<TRIPOS>BOND
     1    38    39    1
     2    39    34    1
     3    34    35    2
     4    34    36   am
     5    28    36    1
     6    28    29    1
     7    29    30    1
     8    30    31    1
     9    31    27    1
    10    27    25    1
    11    25    26    1
    12    25    19    1
    13    19    20   ar
    14    20    21   ar
    15    21    22   ar
    16    22     1    1
    17     1     2   am
    18     2     3    2
    19     2     4    1
    20     4     5    1
    21     5     6   ar
    22     6     7   ar
    23     7    40    1
    24    40    41    1
    25     7     8   ar
    26     8    42    1
    27    42    43    1
    28    43    44    1
    29    43    45    1
    30    45    46    1
    31     8     9   ar
    32     9    10   ar
    33    10    11    1
    34    11    12    1
    35    12    13   ar
    36    13    14   ar
    37    14    15   ar
    38    15    16    1
    39    15    17   ar
    40    17    18   ar
    41    22    23   ar
    42    23    24   ar
    43    31    32    1
    44    32    33    1
    45    33    28    1
    46    24    19   ar
    47    11     1    1
    48    18    12   ar
    49    10     5   ar
    50    36    37    1
@<TRIPOS>MOLECULE
*****
 46 50 0 0 0
SMALL
GASTEIGER

@<TRIPOS>ATOM
      1 N         139.8258  139.8783  163.7422 N.am    1  UNL1       -0.2523
      2 C         138.9039  138.7380  164.0581 C.2     1  UNL1        0.2342
      3 O         138.4380  137.8247  162.9631 O.2     1  UNL1       -0.2742
      4 C         138.4478  138.5111  165.4689 C.3     1  UNL1        0.1118
      5 C         138.9136  139.4244  166.5639 C.ar    1  UNL1       -0.0119
      6 C         138.4575  139.1974  167.9747 C.ar    1  UNL1        0.0360
      7 C         138.9234  140.1107  169.0695 C.ar    1  UNL1        0.1721
      8 C         139.8453  141.2510  168.7536 C.ar    1  UNL1        0.1718
      9 C         140.3014  141.4780  167.3428 C.ar    1  UNL1        0.0374
     10 C         139.8356  140.5647  166.2479 C.ar    1  UNL1       -0.0000
     11 C         140.2917  140.7916  164.8370 C.3     1  UNL1        0.1245
     12 C         141.2136  141.9318  164.5211 C.ar    1  UNL1        0.0003
     13 C         140.6499  143.2697  164.1438 C.ar    1  UNL1       -0.0015
     14 C         141.5718  144.4100  163.8278 C.ar    1  UNL1        0.0111
     15 C         143.0575  144.2124  163.8893 C.ar    1  UNL1        0.0577
     16 CL        143.9795  145.3526  163.5733 Cl      1  UNL1       -0.0822
     17 C         143.6212  142.8745  164.2666 C.ar    1  UNL1        0.0111
     18 C         142.6993  141.7343  164.5825 C.ar    1  UNL1       -0.0015
     19 C         141.1940  140.5591  159.5096 C.ar    1  UNL1        0.0480
     20 C         142.0077  139.7005  160.4319 C.ar    1  UNL1        0.0158
     21 C         141.5517  139.4736  161.8427 C.ar    1  UNL1        0.0162
     22 C         140.2819  140.1052  162.3313 C.ar    1  UNL1        0.0545
     23 C         139.4682  140.9638  161.4089 C.ar    1  UNL1        0.0162
     24 C         139.9242  141.1908  159.9981 C.ar    1  UNL1        0.0158
     25 N         141.6501  140.7861  158.0987 N.pl3   1  UNL1       -0.3058
     26 C         141.3298  139.7775  157.0356 C.3     1  UNL1        0.1122
     27 C         142.4264  142.0215  157.7510 C.3     1  UNL1        0.0908
     28 C         140.2760  145.9197  157.0952 C.3     1  UNL1        0.0716
     29 C         141.6786  145.9171  157.6267 C.3     1  UNL1        0.0196
     30 C         142.3955  144.6177  157.8453 C.3     1  UNL1        0.0034
     31 C         141.7096  143.3209  157.5324 C.3     1  UNL1        0.0199
     32 C         140.3069  143.3235  157.0008 C.3     1  UNL1        0.0034
     33 C         139.5901  144.6229  156.7822 C.3     1  UNL1        0.0196
     34 C         139.5031  147.8231  155.5047 C.2     1  UNL1        0.2224
     35 O         140.1638  147.1277  154.3515 O.2     1  UNL1       -0.2751
     36 N         139.5591  147.2191  156.8766 N.am    1  UNL1       -0.3060
     37 H         139.1255  147.6755  157.6335 H       1  UNL1        0.1494
     38 C         138.3938  149.9694  156.4603 C.3     1  UNL1        0.0101
     39 C         138.7863  149.1225  155.2861 C.3     1  UNL1        0.0851
     40 O         138.4673  139.8838  170.4804 O.3     1  UNL1       -0.4684
     41 C         137.1277  139.2628  170.7449 C.3     1  UNL1        0.2526
     42 O         140.3112  142.1643  169.8486 O.3     1  UNL1       -0.4761
     43 C         141.6858  142.0020  170.4265 C.3     1  UNL1        0.1662
     44 C         142.6464  143.1540  170.4119 C.3     1  UNL1        0.0472
     45 C         142.1000  140.6877  171.0191 C.3     1  UNL1        0.0435
     46 C         142.4967  139.5525  170.1224 C.3     1  UNL1        0.0038
@<TRIPOS>BOND
     1    38    39    1
     2    39    34    1
     3    34    35    2
     4    34    36   am
     5    28    36    1
     6    28    29    1
     7    29    30    1
     8    30    31    1
     9    31    27    1
    10    27    25    1
    11    25    26    1
    12    25    19    1
    13    19    20   ar
    14    20    21   ar
    15    21    22   ar
    16    22     1    1
    17     1     2   am
    18     2     3    2
    19     2     4    1
    20     4     5    1
    21     5     6   ar
    22     6     7   ar
    23     7    40    1
    24    40    41    1
    25     7     8   ar
    26     8    42    1
    27    42    43    1
    28    43    44    1
    29    43    45    1
    30    45    46    1
    31     8     9   ar
    32     9    10   ar
    33    10    11    1
    34    11    12    1
    35    12    13   ar
    36    13    14   ar
    37    14    15   ar
    38    15    16    1
    39    15    17   ar
    40    17    18   ar
    41    22    23   ar
    42    23    24   ar
    43    31    32    1
    44    32    33    1
    45    33    28    1
    46    24    19   ar
    47    11     1    1
    48    18    12   ar
    49    10     5   ar
    50    36    37    1
@<TRIPOS>MOLECULE
*****
 46 50 0 0 0
SMALL
GASTEIGER

@<TRIPOS>ATOM
      1 N         142.4636  143.4682  162.5758 N.am    1  UNL1       -0.2523
      2 C         143.5696  144.1964  163.2803 C.2     1  UNL1        0.2342
      3 O         144.3411  145.2639  162.5624 O.2     1  UNL1       -0.2742
      4 C         143.9042  143.8572  164.7025 C.3     1  UNL1        0.1118
      5 C         143.1327  142.7896  165.4204 C.ar    1  UNL1       -0.0119
      6 C         143.4673  142.4504  166.8427 C.ar    1  UNL1        0.0360
      7 C         142.6958  141.3829  167.5604 C.ar    1  UNL1        0.1721
      8 C         141.5897  140.6547  166.8560 C.ar    1  UNL1        0.1718
      9 C         141.2551  140.9939  165.4337 C.ar    1  UNL1        0.0374
     10 C         142.0266  142.0614  164.7159 C.ar    1  UNL1       -0.0000
     11 C         141.6921  142.4007  163.2935 C.3     1  UNL1        0.1245
     12 C         140.5860  141.6725  162.5890 C.ar    1  UNL1        0.0003
     13 C         140.8896  140.4405  161.7890 C.ar    1  UNL1       -0.0015
     14 C         139.7835  139.7123  161.0845 C.ar    1  UNL1        0.0111
     15 C         138.3739  140.2161  161.1801 C.ar    1  UNL1        0.0577
     16 CL        137.2678  139.4879  160.4756 Cl      1  UNL1       -0.0822
     17 C         138.0703  141.4481  161.9800 C.ar    1  UNL1        0.0111
     18 C         139.1764  142.1763  162.6845 C.ar    1  UNL1       -0.0015
     19 C         141.4600  144.4860  158.3088 C.ar    1  UNL1        0.0480
     20 C         140.7482  145.1792  159.4326 C.ar    1  UNL1        0.0158
     21 C         141.0827  144.8400  160.8549 C.ar    1  UNL1        0.0162
     22 C         142.1290  143.8075  161.1534 C.ar    1  UNL1        0.0545
     23 C         142.8408  143.1143  160.0297 C.ar    1  UNL1        0.0162
     24 C         142.5063  143.4536  158.6074 C.ar    1  UNL1        0.0158
     25 N         141.1254  144.8253  156.8865 N.pl3   1  UNL1       -0.3058
     26 C         141.1880  146.2498  156.4206 C.3     1  UNL1        0.1122
     27 C         140.7283  143.7402  155.9300 C.3     1  UNL1        0.0908
     28 C         136.9975  141.3374  156.6766 C.3     1  UNL1        0.0716
     29 C         136.8930  142.7695  156.2429 C.3     1  UNL1        0.0196
     30 C         138.1366  143.5705  155.9941 C.3     1  UNL1        0.0034
     31 C         139.4847  142.9393  156.1789 C.3     1  UNL1        0.0199
     32 C         139.5892  141.5071  156.6126 C.3     1  UNL1        0.0034
     33 C         138.3456  140.7062  156.8614 C.3     1  UNL1        0.0196
     34 C         134.8635  140.1581  155.7791 C.2     1  UNL1        0.2224
     35 O         135.2168  140.5808  154.3839 O.2     1  UNL1       -0.2751
     36 N         135.7539  140.5364  156.9255 N.am    1  UNL1       -0.3060
     37 H         135.5220  140.2590  157.8412 H       1  UNL1        0.1494
     38 C         132.9401  139.4230  157.3633 C.3     1  UNL1        0.0101
     39 C         133.6200  139.3571  156.0279 C.3     1  UNL1        0.0851
     40 O         143.0303  141.0436  168.9828 O.3     1  UNL1       -0.4684
     41 C         143.6729  142.0704  169.8676 C.3     1  UNL1        0.2526
     42 O         140.8182  139.5872  167.5738 O.3     1  UNL1       -0.4761
     43 C         139.4730  139.8993  168.1594 C.3     1  UNL1        0.1662
     44 C         139.3697  140.7547  169.3873 C.3     1  UNL1        0.0472
     45 C         138.2310  139.3561  167.5171 C.3     1  UNL1        0.0435
     46 C         138.1837  139.1491  166.0322 C.3     1  UNL1        0.0038
@<TRIPOS>BOND
     1    38    39    1
     2    39    34    1
     3    34    35    2
     4    34    36   am
     5    28    36    1
     6    28    29    1
     7    29    30    1
     8    30    31    1
     9    31    27    1
    10    27    25    1
    11    25    26    1
    12    25    19    1
    13    19    20   ar
    14    20    21   ar
    15    21    22   ar
    16    22     1    1
    17     1     2   am
    18     2     3    2
    19     2     4    1
    20     4     5    1
    21     5     6   ar
    22     6     7   ar
    23     7    40    1
    24    40    41    1
    25     7     8   ar
    26     8    42    1
    27    42    43    1
    28    43    44    1
    29    43    45    1
    30    45    46    1
    31     8     9   ar
    32     9    10   ar
    33    10    11    1
    34    11    12    1
    35    12    13   ar
    36    13    14   ar
    37    14    15   ar
    38    15    16    1
    39    15    17   ar
    40    17    18   ar
    41    22    23   ar
    42    23    24   ar
    43    31    32    1
    44    32    33    1
    45    33    28    1
    46    24    19   ar
    47    11     1    1
    48    18    12   ar
    49    10     5   ar
    50    36    37    1
@<TRIPOS>MOLECULE
*****
 46 50 0 0 0
SMALL
GASTEIGER

@<TRIPOS>ATOM
      1 N         139.9052  139.5573  164.2465 N.am    1  UNL1       -0.2523
      2 C         138.8853  138.4705  164.4155 C.2     1  UNL1        0.2342
      3 O         138.5143  137.6023  163.2498 O.2     1  UNL1       -0.2742
      4 C         138.2363  138.2518  165.7500 C.3     1  UNL1        0.1118
      5 C         138.6073  139.1201  166.9157 C.ar    1  UNL1       -0.0119
      6 C         137.9584  138.9014  168.2502 C.ar    1  UNL1        0.0360
      7 C         138.3294  139.7696  169.4157 C.ar    1  UNL1        0.1721
      8 C         139.3493  140.8565  169.2467 C.ar    1  UNL1        0.1718
      9 C         139.9982  141.0751  167.9122 C.ar    1  UNL1        0.0374
     10 C         139.6272  140.2069  166.7467 C.ar    1  UNL1       -0.0000
     11 C         140.2762  140.4255  165.4120 C.3     1  UNL1        0.1245
     12 C         141.2961  141.5124  165.2430 C.ar    1  UNL1        0.0003
     13 C         142.7325  141.2532  165.5888 C.ar    1  UNL1       -0.0015
     14 C         143.7525  142.3401  165.4198 C.ar    1  UNL1        0.0111
     15 C         143.3359  143.6861  164.9051 C.ar    1  UNL1        0.0577
     16 CL        144.3558  144.7729  164.7361 Cl      1  UNL1       -0.0822
     17 C         141.8995  143.9452  164.5594 C.ar    1  UNL1        0.0111
     18 C         140.8796  142.8583  164.7284 C.ar    1  UNL1       -0.0015
     19 C         141.8520  140.2131  160.2428 C.ar    1  UNL1        0.0480
     20 C         140.5745  140.9228  160.5808 C.ar    1  UNL1        0.0158
     21 C         139.9256  140.7043  161.9153 C.ar    1  UNL1        0.0162
     22 C         140.5541  139.7760  162.9119 C.ar    1  UNL1        0.0545
     23 C         141.8316  139.0662  162.5738 C.ar    1  UNL1        0.0162
     24 C         142.4806  139.2848  161.2393 C.ar    1  UNL1        0.0158
     25 N         142.5009  140.4317  158.9081 N.pl3   1  UNL1       -0.3058
     26 C         143.9212  140.9086  158.8339 C.3     1  UNL1        0.1122
     27 C         141.7296  140.1734  157.6479 C.3     1  UNL1        0.0908
     28 C         141.3787  135.9839  156.0434 C.3     1  UNL1        0.0716
     29 C         142.6465  136.4276  156.7110 C.3     1  UNL1        0.0196
     30 C         142.7635  137.8241  157.2458 C.3     1  UNL1        0.0034
     31 C         141.6127  138.7769  157.1131 C.3     1  UNL1        0.0199
     32 C         140.3448  138.3332  156.4455 C.3     1  UNL1        0.0034
     33 C         140.2278  136.9367  155.9107 C.3     1  UNL1        0.0196
     34 C         141.6009  134.3021  154.0756 C.2     1  UNL1        0.2224
     35 O         142.0573  135.4135  153.1774 O.2     1  UNL1       -0.2751
     36 N         141.2616  134.5873  155.5086 N.am    1  UNL1       -0.3060
     37 H         140.9621  133.8579  156.0981 H       1  UNL1        0.1494
     38 C         142.7148  132.0697  153.3505 C.3     1  UNL1        0.0101
     39 C         141.4839  132.9056  153.5407 C.3     1  UNL1        0.0851
     40 O         137.6804  139.5510  170.7504 O.3     1  UNL1       -0.4684
     41 C         136.4727  138.6683  170.8615 C.3     1  UNL1        0.2526
     42 O         139.7202  141.7247  170.4124 O.3     1  UNL1       -0.4761
     43 C         140.8066  142.7490  170.2689 C.3     1  UNL1        0.1662
     44 C         140.4610  144.1634  169.9085 C.3     1  UNL1        0.0472
     45 C         142.2387  142.3587  170.4857 C.3     1  UNL1        0.0435
     46 C         143.2053  142.3859  169.3390 C.3     1  UNL1        0.0038
@<TRIPOS>BOND
     1    38    39    1
     2    39    34    1
     3    34    35    2
     4    34    36   am
     5    28    36    1
     6    28    29    1
     7    29    30    1
     8    30    31    1
     9    31    27    1
    10    27    25    1
    11    25    26    1
    12    25    19    1
    13    19    20   ar
    14    20    21   ar
    15    21    22   ar
    16    22     1    1
    17     1     2   am
    18     2     3    2
    19     2     4    1
    20     4     5    1
    21     5     6   ar
    22     6     7   ar
    23     7    40    1
    24    40    41    1
    25     7     8   ar
    26     8    42    1
    27    42    43    1
    28    43    44    1
    29    43    45    1
    30    45    46    1
    31     8     9   ar
    32     9    10   ar
    33    10    11    1
    34    11    12    1
    35    12    13   ar
    36    13    14   ar
    37    14    15   ar
    38    15    16    1
    39    15    17   ar
    40    17    18   ar
    41    22    23   ar
    42    23    24   ar
    43    31    32    1
    44    32    33    1
    45    33    28    1
    46    24    19   ar
    47    11     1    1
    48    18    12   ar
    49    10     5   ar
    50    36    37    1
@<TRIPOS>MOLECULE
*****
 46 50 0 0 0
SMALL
GASTEIGER

@<TRIPOS>ATOM
      1 N         141.7716  140.0965  162.4071 N.am    1  UNL1       -0.2523
      2 C         142.2730  138.7326  162.7792 C.2     1  UNL1        0.2342
      3 O         142.4161  137.6732  161.7269 O.2     1  UNL1       -0.2742
      4 C         142.6313  138.4281  164.2036 C.3     1  UNL1        0.1118
      5 C         142.4882  139.4875  165.2559 C.ar    1  UNL1       -0.0119
      6 C         142.8465  139.1830  166.6803 C.ar    1  UNL1        0.0360
      7 C         142.7034  140.2423  167.7325 C.ar    1  UNL1        0.1721
      8 C         142.2019  141.6062  167.3604 C.ar    1  UNL1        0.1718
      9 C         141.8436  141.9107  165.9360 C.ar    1  UNL1        0.0374
     10 C         141.9868  140.8513  164.8838 C.ar    1  UNL1       -0.0000
     11 C         141.6284  141.1558  163.4593 C.3     1  UNL1        0.1245
     12 C         141.1270  142.5197  163.0872 C.ar    1  UNL1        0.0003
     13 C         142.1000  143.6089  162.7451 C.ar    1  UNL1       -0.0015
     14 C         141.5985  144.9728  162.3730 C.ar    1  UNL1        0.0111
     15 C         140.1241  145.2474  162.3430 C.ar    1  UNL1        0.0577
     16 CL        139.6227  146.6112  161.9708 Cl      1  UNL1       -0.0822
     17 C         139.1512  144.1581  162.6850 C.ar    1  UNL1        0.0111
     18 C         139.6527  142.7943  163.0572 C.ar    1  UNL1       -0.0015
     19 C         140.6965  141.0098  158.1339 C.ar    1  UNL1        0.0480
     20 C         142.0657  141.3403  158.6499 C.ar    1  UNL1        0.0158
     21 C         142.4240  141.0359  160.0743 C.ar    1  UNL1        0.0162
     22 C         141.4132  140.4009  160.9826 C.ar    1  UNL1        0.0545
     23 C         140.0441  140.0704  160.4666 C.ar    1  UNL1        0.0162
     24 C         139.6858  140.3748  159.0423 C.ar    1  UNL1        0.0158
     25 N         140.3382  141.3143  156.7095 N.pl3   1  UNL1       -0.3058
     26 C         139.3419  140.4567  155.9870 C.3     1  UNL1        0.1122
     27 C         140.9762  142.4763  156.0076 C.3     1  UNL1        0.0908
     28 C         139.3292  146.6258  156.5722 C.3     1  UNL1        0.0716
     29 C         140.3843  146.1047  157.5023 C.3     1  UNL1        0.0196
     30 C         140.9334  144.7215  157.3141 C.3     1  UNL1        0.0034
     31 C         140.4272  143.8594  156.1958 C.3     1  UNL1        0.0199
     32 C         139.3720  144.3806  155.2657 C.3     1  UNL1        0.0034
     33 C         138.8230  145.7637  155.4539 C.3     1  UNL1        0.0196
     34 C         138.9428  149.0342  155.6775 C.2     1  UNL1        0.2224
     35 O         139.6544  148.6762  154.4065 O.2     1  UNL1       -0.2751
     36 N         138.7802  148.0090  156.7604 N.am    1  UNL1       -0.3060
     37 H         138.3131  148.2440  157.5946 H       1  UNL1        0.1494
     38 C         138.6524  151.4739  154.8327 C.3     1  UNL1        0.0101
     39 C         138.3938  150.4174  155.8656 C.3     1  UNL1        0.0851
     40 O         143.0617  139.9379  169.1569 O.3     1  UNL1       -0.4684
     41 C         142.6737  138.6218  169.7630 C.3     1  UNL1        0.2526
     42 O         142.0588  142.6656  168.4127 O.3     1  UNL1       -0.4761
     43 C         140.7799  142.7853  169.1873 C.3     1  UNL1        0.1662
     44 C         140.4965  144.0268  169.9798 C.3     1  UNL1        0.0472
     45 C         139.7843  141.6634  169.1693 C.3     1  UNL1        0.0435
     46 C         139.7070  140.7107  170.3254 C.3     1  UNL1        0.0038
@<TRIPOS>BOND
     1    38    39    1
     2    39    34    1
     3    34    35    2
     4    34    36   am
     5    28    36    1
     6    28    29    1
     7    29    30    1
     8    30    31    1
     9    31    27    1
    10    27    25    1
    11    25    26    1
    12    25    19    1
    13    19    20   ar
    14    20    21   ar
    15    21    22   ar
    16    22     1    1
    17     1     2   am
    18     2     3    2
    19     2     4    1
    20     4     5    1
    21     5     6   ar
    22     6     7   ar
    23     7    40    1
    24    40    41    1
    25     7     8   ar
    26     8    42    1
    27    42    43    1
    28    43    44    1
    29    43    45    1
    30    45    46    1
    31     8     9   ar
    32     9    10   ar
    33    10    11    1
    34    11    12    1
    35    12    13   ar
    36    13    14   ar
    37    14    15   ar
    38    15    16    1
    39    15    17   ar
    40    17    18   ar
    41    22    23   ar
    42    23    24   ar
    43    31    32    1
    44    32    33    1
    45    33    28    1
    46    24    19   ar
    47    11     1    1
    48    18    12   ar
    49    10     5   ar
    50    36    37    1
@<TRIPOS>MOLECULE
*****
 46 50 0 0 0
SMALL
GASTEIGER

@<TRIPOS>ATOM
      1 N         139.7790  139.8585  163.1837 N.am    1  UNL1       -0.2523
      2 C         138.7908  138.7906  163.5483 C.2     1  UNL1        0.2342
      3 O         138.1637  137.9511  162.4749 O.2     1  UNL1       -0.2742
      4 C         138.4295  138.5622  164.9860 C.3     1  UNL1        0.1118
      5 C         139.0566  139.4017  166.0594 C.ar    1  UNL1       -0.0119
      6 C         138.6954  139.1733  167.4972 C.ar    1  UNL1        0.0360
      7 C         139.3224  140.0128  168.5705 C.ar    1  UNL1        0.1721
      8 C         140.3107  141.0807  168.2060 C.ar    1  UNL1        0.1718
      9 C         140.6719  141.3092  166.7682 C.ar    1  UNL1        0.0374
     10 C         140.0449  140.4697  165.6949 C.ar    1  UNL1       -0.0000
     11 C         140.4061  140.6980  164.2570 C.3     1  UNL1        0.1245
     12 C         141.3944  141.7659  163.8925 C.ar    1  UNL1        0.0003
     13 C         140.9220  143.1631  163.6189 C.ar    1  UNL1       -0.0015
     14 C         141.9103  144.2310  163.2544 C.ar    1  UNL1        0.0111
     15 C         143.3710  143.9017  163.1635 C.ar    1  UNL1        0.0577
     16 CL        144.3593  144.9696  162.7990 Cl      1  UNL1       -0.0822
     17 C         143.8433  142.5046  163.4371 C.ar    1  UNL1        0.0111
     18 C         142.8550  141.4367  163.8016 C.ar    1  UNL1       -0.0015
     19 C         140.8626  140.5437  158.8702 C.ar    1  UNL1        0.0480
     20 C         141.6546  139.5753  159.6978 C.ar    1  UNL1        0.0158
     21 C         141.2935  139.3469  161.1356 C.ar    1  UNL1        0.0162
     22 C         140.1403  140.0869  161.7459 C.ar    1  UNL1        0.0545
     23 C         139.3482  141.0553  160.9183 C.ar    1  UNL1        0.0162
     24 C         139.7094  141.2837  159.4805 C.ar    1  UNL1        0.0158
     25 N         141.2238  140.7721  157.4323 N.pl3   1  UNL1       -0.3058
     26 C         142.0624  141.9551  157.0485 C.3     1  UNL1        0.1122
     27 C         140.7465  139.8175  156.3784 C.3     1  UNL1        0.0908
     28 C         142.8461  135.8810  155.7907 C.3     1  UNL1        0.0716
     29 C         143.6443  137.1434  155.9292 C.3     1  UNL1        0.0196
     30 C         142.9444  138.4556  156.1251 C.3     1  UNL1        0.0034
     31 C         141.4464  138.5054  156.1825 C.3     1  UNL1        0.0199
     32 C         140.6482  137.2429  156.0441 C.3     1  UNL1        0.0034
     33 C         141.3480  135.9308  155.8482 C.3     1  UNL1        0.0196
     34 C         143.8819  133.7136  156.7805 C.2     1  UNL1        0.2224
     35 O         143.5179  134.1707  158.1621 O.2     1  UNL1       -0.2751
     36 N         143.5460  134.5688  155.5948 N.am    1  UNL1       -0.3060
     37 H         143.7849  134.2688  154.6881 H       1  UNL1        0.1494
     38 C         145.2925  131.7516  157.7347 C.3     1  UNL1        0.0101
     39 C         144.5818  132.4015  156.5847 C.3     1  UNL1        0.0851
     40 O         138.9612  139.7845  170.0084 O.3     1  UNL1       -0.4684
     41 C         137.5318  139.5422  170.3932 C.3     1  UNL1        0.2526
     42 O         140.9378  141.9203  169.2794 O.3     1  UNL1       -0.4761
     43 C         142.3024  141.5768  169.7990 C.3     1  UNL1        0.1662
     44 C         143.4866  142.4081  169.4036 C.3     1  UNL1        0.0472
     45 C         142.4826  140.4018  170.7139 C.3     1  UNL1        0.0435
     46 C         142.5815  139.0171  170.1457 C.3     1  UNL1        0.0038
@<TRIPOS>BOND
     1    38    39    1
     2    39    34    1
     3    34    35    2
     4    34    36   am
     5    28    36    1
     6    28    29    1
     7    29    30    1
     8    30    31    1
     9    31    27    1
    10    27    25    1
    11    25    26    1
    12    25    19    1
    13    19    20   ar
    14    20    21   ar
    15    21    22   ar
    16    22     1    1
    17     1     2   am
    18     2     3    2
    19     2     4    1
    20     4     5    1
    21     5     6   ar
    22     6     7   ar
    23     7    40    1
    24    40    41    1
    25     7     8   ar
    26     8    42    1
    27    42    43    1
    28    43    44    1
    29    43    45    1
    30    45    46    1
    31     8     9   ar
    32     9    10   ar
    33    10    11    1
    34    11    12    1
    35    12    13   ar
    36    13    14   ar
    37    14    15   ar
    38    15    16    1
    39    15    17   ar
    40    17    18   ar
    41    22    23   ar
    42    23    24   ar
    43    31    32    1
    44    32    33    1
    45    33    28    1
    46    24    19   ar
    47    11     1    1
    48    18    12   ar
    49    10     5   ar
    50    36    37    1
@<TRIPOS>MOLECULE
*****
 46 50 0 0 0
SMALL
GASTEIGER

@<TRIPOS>ATOM
      1 N         139.7864  139.5346  158.2141 N.am    1  UNL1       -0.2523
      2 C         138.9387  139.4390  156.9803 C.2     1  UNL1        0.2342
      3 O         137.7458  140.3340  156.8187 O.2     1  UNL1       -0.2742
      4 C         139.2839  138.4484  155.9081 C.3     1  UNL1        0.1118
      5 C         140.4768  137.5534  156.0698 C.ar    1  UNL1       -0.0119
      6 C         140.8220  136.5629  154.9976 C.ar    1  UNL1        0.0360
      7 C         142.0148  135.6679  155.1593 C.ar    1  UNL1        0.1721
      8 C         142.8625  135.7636  156.3931 C.ar    1  UNL1        0.1718
      9 C         142.5173  136.7541  157.4653 C.ar    1  UNL1        0.0374
     10 C         141.3244  137.6491  157.3036 C.ar    1  UNL1       -0.0000
     11 C         140.9792  138.6397  158.3758 C.3     1  UNL1        0.1245
     12 C         141.8269  138.7353  159.6096 C.ar    1  UNL1        0.0003
     13 C         143.0725  139.5710  159.6009 C.ar    1  UNL1       -0.0015
     14 C         143.9202  139.6667  160.8347 C.ar    1  UNL1        0.0111
     15 C         143.5222  138.9266  162.0773 C.ar    1  UNL1        0.0577
     16 CL        144.3698  139.0222  163.3111 Cl      1  UNL1       -0.0822
     17 C         142.2766  138.0909  162.0860 C.ar    1  UNL1        0.0111
     18 C         141.4289  137.9953  160.8522 C.ar    1  UNL1       -0.0015
     19 C         138.7508  142.5065  161.4306 C.ar    1  UNL1        0.0480
     20 C         138.0639  141.1736  161.3917 C.ar    1  UNL1        0.0158
     21 C         138.4091  140.1829  160.3196 C.ar    1  UNL1        0.0162
     22 C         139.4411  140.5253  159.2863 C.ar    1  UNL1        0.0545
     23 C         140.1280  141.8582  159.3252 C.ar    1  UNL1        0.0162
     24 C         139.7828  142.8488  160.3973 C.ar    1  UNL1        0.0158
     25 N         138.4055  143.4971  162.5028 N.pl3   1  UNL1       -0.3058
     26 C         138.6368  144.9614  162.2736 C.3     1  UNL1        0.1122
     27 C         137.8291  143.0235  163.8040 C.3     1  UNL1        0.0908
     28 C         140.5014  141.1381  166.8950 C.3     1  UNL1        0.0716
     29 C         140.5702  142.6155  166.6448 C.3     1  UNL1        0.0196
     30 C         139.6795  143.2440  165.6144 C.3     1  UNL1        0.0034
     31 C         138.7198  142.3951  164.8343 C.3     1  UNL1        0.0199
     32 C         138.6510  140.9177  165.0847 C.3     1  UNL1        0.0034
     33 C         139.5417  140.2892  166.1150 C.3     1  UNL1        0.0196
     34 C         140.8009  139.9394  169.1805 C.2     1  UNL1        0.2224
     35 O         139.3189  139.9977  169.4053 O.2     1  UNL1       -0.2751
     36 N         141.3921  140.5096  167.9254 N.am    1  UNL1       -0.3060
     37 H         142.3648  140.4714  167.7779 H       1  UNL1        0.1494
     38 C         142.9240  140.0289  170.6753 C.3     1  UNL1        0.0101
     39 C         141.6916  139.3109  170.2109 C.3     1  UNL1        0.0851
     40 O         142.3600  134.6773  154.0871 O.3     1  UNL1       -0.4684
     41 C         141.8098  134.8488  152.7022 C.3     1  UNL1        0.2526
     42 O         144.0553  134.8685  156.5547 O.3     1  UNL1       -0.4761
     43 C         143.8848  133.4836  157.1051 C.3     1  UNL1        0.1662
     44 C         144.9277  132.9042  158.0143 C.3     1  UNL1        0.0472
     45 C         142.6712  132.6782  156.7464 C.3     1  UNL1        0.0435
     46 C         142.8087  131.4582  155.8845 C.3     1  UNL1        0.0038
@<TRIPOS>BOND
     1    38    39    1
     2    39    34    1
     3    34    35    2
     4    34    36   am
     5    28    36    1
     6    28    29    1
     7    29    30    1
     8    30    31    1
     9    31    27    1
    10    27    25    1
    11    25    26    1
    12    25    19    1
    13    19    20   ar
    14    20    21   ar
    15    21    22   ar
    16    22     1    1
    17     1     2   am
    18     2     3    2
    19     2     4    1
    20     4     5    1
    21     5     6   ar
    22     6     7   ar
    23     7    40    1
    24    40    41    1
    25     7     8   ar
    26     8    42    1
    27    42    43    1
    28    43    44    1
    29    43    45    1
    30    45    46    1
    31     8     9   ar
    32     9    10   ar
    33    10    11    1
    34    11    12    1
    35    12    13   ar
    36    13    14   ar
    37    14    15   ar
    38    15    16    1
    39    15    17   ar
    40    17    18   ar
    41    22    23   ar
    42    23    24   ar
    43    31    32    1
    44    32    33    1
    45    33    28    1
    46    24    19   ar
    47    11     1    1
    48    18    12   ar
    49    10     5   ar
    50    36    37    1
@<TRIPOS>MOLECULE
*****
 46 50 0 0 0
SMALL
GASTEIGER

@<TRIPOS>ATOM
      1 N         139.6682  143.4096  158.2665 N.am    1  UNL1       -0.2523
      2 C         139.6729  144.4362  157.1729 C.2     1  UNL1        0.2342
      3 O         140.6425  145.5798  157.2219 O.2     1  UNL1       -0.2742
      4 C         138.7082  144.3194  156.0303 C.3     1  UNL1        0.1118
      5 C         137.7386  143.1759  155.9813 C.ar    1  UNL1       -0.0119
      6 C         136.7738  143.0590  154.8387 C.ar    1  UNL1        0.0360
      7 C         135.8044  141.9155  154.7897 C.ar    1  UNL1        0.1721
      8 C         135.7996  140.8889  155.8833 C.ar    1  UNL1        0.1718
      9 C         136.7644  141.0057  157.0259 C.ar    1  UNL1        0.0374
     10 C         137.7339  142.1492  157.0749 C.ar    1  UNL1       -0.0000
     11 C         138.6987  142.2661  158.2175 C.3     1  UNL1        0.1245
     12 C         138.6940  141.2394  159.3111 C.ar    1  UNL1        0.0003
     13 C         139.4313  139.9459  159.1286 C.ar    1  UNL1       -0.0015
     14 C         139.4265  138.9192  160.2222 C.ar    1  UNL1        0.0111
     15 C         138.6845  139.1861  161.4983 C.ar    1  UNL1        0.0577
     16 CL        138.6797  138.1595  162.5919 Cl      1  UNL1       -0.0822
     17 C         137.9472  140.4796  161.6807 C.ar    1  UNL1        0.0111
     18 C         137.9520  141.5063  160.5871 C.ar    1  UNL1       -0.0015
     19 C         142.5626  143.7602  161.6942 C.ar    1  UNL1        0.0480
     20 C         141.2577  144.4987  161.7360 C.ar    1  UNL1        0.0158
     21 C         140.2929  144.3818  160.5934 C.ar    1  UNL1        0.0162
     22 C         140.6330  143.5265  159.4091 C.ar    1  UNL1        0.0545
     23 C         141.9380  142.7880  159.3673 C.ar    1  UNL1        0.0162
     24 C         142.9028  142.9048  160.5099 C.ar    1  UNL1        0.0158
     25 N         143.5275  143.8771  162.8368 N.pl3   1  UNL1       -0.3058
     26 C         144.0404  145.2246  163.2504 C.3     1  UNL1        0.1122
     27 C         143.9793  142.6465  163.5658 C.3     1  UNL1        0.0908
     28 C         141.0416  140.2768  166.0162 C.3     1  UNL1        0.0716
     29 C         141.6193  141.5491  166.5617 C.3     1  UNL1        0.0196
     30 C         142.5985  142.3390  165.7449 C.3     1  UNL1        0.0034
     31 C         143.0001  141.8566  164.3825 C.3     1  UNL1        0.0199
     32 C         142.4224  140.5843  163.8370 C.3     1  UNL1        0.0034
     33 C         141.4431  139.7945  164.6538 C.3     1  UNL1        0.0196
     34 C         138.6232  139.4157  166.4160 C.2     1  UNL1        0.2224
     35 O         138.1633  140.1343  165.1822 O.2     1  UNL1       -0.2751
     36 N         140.0623  139.4869  166.8330 N.am    1  UNL1       -0.3060
     37 H         140.3641  139.0152  167.6427 H       1  UNL1        0.1494
     38 C         137.3770  137.1879  166.8994 C.3     1  UNL1        0.0101
     39 C         137.6439  138.6258  167.2327 C.3     1  UNL1        0.0851
     40 O         134.8395  141.7986  153.6471 O.3     1  UNL1       -0.4684
     41 C         135.2980  141.2404  152.3325 C.3     1  UNL1        0.2526
     42 O         134.8300  139.7453  155.8343 O.3     1  UNL1       -0.4761
     43 C         133.4765  139.8821  156.4660 C.3     1  UNL1        0.1662
     44 C         132.5025  140.8947  155.9408 C.3     1  UNL1        0.0472
     45 C         133.0969  139.0062  157.6232 C.3     1  UNL1        0.0435
     46 C         131.6541  138.6870  157.8805 C.3     1  UNL1        0.0038
@<TRIPOS>BOND
     1    38    39    1
     2    39    34    1
     3    34    35    2
     4    34    36   am
     5    28    36    1
     6    28    29    1
     7    29    30    1
     8    30    31    1
     9    31    27    1
    10    27    25    1
    11    25    26    1
    12    25    19    1
    13    19    20   ar
    14    20    21   ar
    15    21    22   ar
    16    22     1    1
    17     1     2   am
    18     2     3    2
    19     2     4    1
    20     4     5    1
    21     5     6   ar
    22     6     7   ar
    23     7    40    1
    24    40    41    1
    25     7     8   ar
    26     8    42    1
    27    42    43    1
    28    43    44    1
    29    43    45    1
    30    45    46    1
    31     8     9   ar
    32     9    10   ar
    33    10    11    1
    34    11    12    1
    35    12    13   ar
    36    13    14   ar
    37    14    15   ar
    38    15    16    1
    39    15    17   ar
    40    17    18   ar
    41    22    23   ar
    42    23    24   ar
    43    31    32    1
    44    32    33    1
    45    33    28    1
    46    24    19   ar
    47    11     1    1
    48    18    12   ar
    49    10     5   ar
    50    36    37    1
@<TRIPOS>MOLECULE
*****
 46 50 0 0 0
SMALL
GASTEIGER

@<TRIPOS>ATOM
      1 N         139.9103  139.3073  164.4001 N.am    1  UNL1       -0.2523
      2 C         138.8521  138.2571  164.5655 C.2     1  UNL1        0.2342
      3 O         138.4873  137.3716  163.4110 O.2     1  UNL1       -0.2742
      4 C         138.1586  138.0926  165.8853 C.3     1  UNL1        0.1118
      5 C         138.5234  138.9781  167.0398 C.ar    1  UNL1       -0.0119
      6 C         137.8299  138.8135  168.3597 C.ar    1  UNL1        0.0360
      7 C         138.1947  139.6991  169.5141 C.ar    1  UNL1        0.1721
      8 C         139.2530  140.7492  169.3486 C.ar    1  UNL1        0.1718
      9 C         139.9464  140.9138  168.0288 C.ar    1  UNL1        0.0374
     10 C         139.5816  140.0283  166.8744 C.ar    1  UNL1       -0.0000
     11 C         140.2751  140.1928  165.5545 C.3     1  UNL1        0.1245
     12 C         141.3333  141.2429  165.3891 C.ar    1  UNL1        0.0003
     13 C         140.9556  142.6248  164.9441 C.ar    1  UNL1       -0.0015
     14 C         142.0138  143.6749  164.7786 C.ar    1  UNL1        0.0111
     15 C         143.4498  143.3432  165.0582 C.ar    1  UNL1        0.0577
     16 CL        144.5080  144.3933  164.8928 Cl      1  UNL1       -0.0822
     17 C         143.8275  141.9614  165.5032 C.ar    1  UNL1        0.0111
     18 C         142.7692  140.9113  165.6686 C.ar    1  UNL1       -0.0015
     19 C         141.9905  139.8010  160.4404 C.ar    1  UNL1        0.0480
     20 C         142.5371  138.8473  161.4610 C.ar    1  UNL1        0.0158
     21 C         141.8438  138.6827  162.7809 C.ar    1  UNL1        0.0162
     22 C         140.6038  139.4718  163.0802 C.ar    1  UNL1        0.0545
     23 C         140.0572  140.4256  162.0596 C.ar    1  UNL1        0.0162
     24 C         140.7505  140.5902  160.7397 C.ar    1  UNL1        0.0158
     25 N         142.6840  139.9656  159.1205 N.pl3   1  UNL1       -0.3058
     26 C         143.6482  141.0962  158.9157 C.3     1  UNL1        0.1122
     27 C         142.4132  138.9995  158.0055 C.3     1  UNL1        0.0908
     28 C         138.7695  139.5163  155.4159 C.3     1  UNL1        0.0716
     29 C         139.4945  140.7206  155.9392 C.3     1  UNL1        0.0196
     30 C         140.7092  140.5483  156.8025 C.3     1  UNL1        0.0034
     31 C         141.1987  139.1718  157.1423 C.3     1  UNL1        0.0199
     32 C         140.4736  137.9675  156.6189 C.3     1  UNL1        0.0034
     33 C         139.2590  138.1397  155.7557 C.3     1  UNL1        0.0196
     34 C         136.2370  140.0441  155.1746 C.2     1  UNL1        0.2224
     35 O         136.1338  140.2275  156.6599 O.2     1  UNL1       -0.2751
     36 N         137.5549  139.6885  154.5526 N.am    1  UNL1       -0.3060
     37 H         137.6226  139.5682  153.5779 H       1  UNL1        0.1494
     38 C         133.9297  141.1535  154.7328 C.3     1  UNL1        0.0101
     39 C         135.0225  140.2163  154.3115 C.3     1  UNL1        0.0851
     40 O         137.5013  139.5345  170.8340 O.3     1  UNL1       -0.4684
     41 C         136.3435  138.5892  170.9602 C.3     1  UNL1        0.2526
     42 O         139.6177  141.6348  170.5031 O.3     1  UNL1       -0.4761
     43 C         140.7347  142.6263  170.3641 C.3     1  UNL1        0.1662
     44 C         140.4582  143.9960  169.8190 C.3     1  UNL1        0.0472
     45 C         142.1283  142.2480  170.7703 C.3     1  UNL1        0.0435
     46 C         142.9674  141.3945  169.8662 C.3     1  UNL1        0.0038
@<TRIPOS>BOND
     1    38    39    1
     2    39    34    1
     3    34    35    2
     4    34    36   am
     5    28    36    1
     6    28    29    1
     7    29    30    1
     8    30    31    1
     9    31    27    1
    10    27    25    1
    11    25    26    1
    12    25    19    1
    13    19    20   ar
    14    20    21   ar
    15    21    22   ar
    16    22     1    1
    17     1     2   am
    18     2     3    2
    19     2     4    1
    20     4     5    1
    21     5     6   ar
    22     6     7   ar
    23     7    40    1
    24    40    41    1
    25     7     8   ar
    26     8    42    1
    27    42    43    1
    28    43    44    1
    29    43    45    1
    30    45    46    1
    31     8     9   ar
    32     9    10   ar
    33    10    11    1
    34    11    12    1
    35    12    13   ar
    36    13    14   ar
    37    14    15   ar
    38    15    16    1
    39    15    17   ar
    40    17    18   ar
    41    22    23   ar
    42    23    24   ar
    43    31    32    1
    44    32    33    1
    45    33    28    1
    46    24    19   ar
    47    11     1    1
    48    18    12   ar
    49    10     5   ar
    50    36    37    1
