@<TRIPOS>MOLECULE
*****
 49 53 0 0 0
SMALL
GASTEIGER

@<TRIPOS>ATOM
      1 C         141.7050  140.7372  164.4028 C.ar    1  UNL1        0.1443
      2 N         142.6517  139.6617  163.9587 N.ar    1  UNL1       -0.2302
      3 C         142.6292  139.1828  162.5373 C.ar    1  UNL1        0.0878
      4 C         143.5758  138.1073  162.0933 C.ar    1  UNL1        0.0193
      5 C         143.5534  137.6285  160.6720 C.ar    1  UNL1        0.0022
      6 C         142.5843  138.2251  159.6947 C.ar    1  UNL1        0.0085
      7 C         141.6376  139.3005  160.1388 C.ar    1  UNL1        0.0477
      8 C         141.6601  139.7794  161.5601 C.ar    1  UNL1        0.0818
      9 C         140.7135  140.8549  162.0043 C.ar    1  UNL1        0.2676
     10 O         139.7444  141.4515  161.0271 O.2     1  UNL1       -0.2665
     11 N         140.7360  141.3338  163.4256 N.ar    1  UNL1       -0.2613
     12 C         139.7893  142.4093  163.8698 C.ar    1  UNL1        0.0680
     13 C         140.2484  143.8362  163.9260 C.ar    1  UNL1        0.0176
     14 C         139.3019  144.9117  164.3701 C.ar    1  UNL1        0.0015
     15 C         137.8962  144.5603  164.7580 C.ar    1  UNL1        0.0001
     16 C         137.4371  143.1334  164.7018 C.ar    1  UNL1        0.0015
     17 C         138.3836  142.0579  164.2576 C.ar    1  UNL1        0.0176
     18 C         140.6686  139.8971  159.1616 C.1     1  UNL1       -0.0642
     19 C         139.6995  140.4937  158.1844 C.1     1  UNL1       -0.0864
     20 C         138.7304  141.0903  157.2072 C.3     1  UNL1        0.0769
     21 C         138.1490  140.2425  156.1149 C.3     1  UNL1        0.0235
     22 C         139.0535  139.4487  155.2196 C.3     1  UNL1        0.0863
     23 C         139.4878  138.0708  155.6235 C.2     1  UNL1        0.2258
     24 O         138.4730  136.9749  155.7616 O.2     1  UNL1       -0.2749
     25 N         140.9369  137.7890  155.8892 N.am    1  UNL1       -0.2744
     26 C         141.3713  136.4112  156.2931 C.3     1  UNL1        0.1255
     27 C         142.8204  136.1294  156.5588 C.3     1  UNL1        0.1636
     28 O         143.8352  137.2253  156.4207 O.3     1  UNL1       -0.3501
     29 C         143.4009  138.6031  156.0168 C.3     1  UNL1        0.1636
     30 C         141.9518  138.8850  155.7511 C.3     1  UNL1        0.1255
     31 C         141.7275  141.2161  165.8242 C.3     1  UNL1        0.1282
     32 C         143.7095  142.8003  165.2660 C.3     1  UNL1        0.0022
     33 C         142.6829  142.2963  166.2366 C.3     1  UNL1        0.0273
     34 N         140.7944  140.6147  166.8330 N.pl3   1  UNL1       -0.3129
     35 H         140.0103  140.1004  166.5332 H       1  UNL1        0.1486
     36 C         141.0561  140.7969  168.2987 C.ar    1  UNL1        0.1440
     37 N         140.2292  141.7634  169.0937 N.ar    1  UNL1       -0.1985
     38 C         140.4908  141.9456  170.5595 C.ar    1  UNL1        0.2160
     39 N         139.6639  142.9121  171.3544 N.pl3   1  UNL1       -0.3274
     40 N         141.5793  141.1613  171.2302 N.ar    1  UNL1       -0.1987
     41 C         142.4063  140.1947  170.4351 C.ar    1  UNL1        0.1407
     42 N         143.4948  139.4104  171.1059 N.pl3   1  UNL1       -0.3419
     43 C         142.1446  140.0125  168.9694 C.ar    1  UNL1        0.1308
     44 H         138.9494  143.4269  170.9142 H       1  UNL1        0.1452
     45 H         139.8356  143.0317  172.3165 H       1  UNL1        0.1452
     46 H         143.6665  139.5300  172.0679 H       1  UNL1        0.1437
     47 H         144.0376  138.7760  170.5841 H       1  UNL1        0.1437
     48 C         142.9716  139.0460  168.1745 C.1     1  UNL1        0.1061
     49 N         143.7985  138.0795  167.3795 N.1     1  UNL1       -0.1906
@<TRIPOS>BOND
     1    32    33    1
     2    31    33    1
     3    31    34    1
     4    34    36    1
     5    36    37   ar
     6    37    38   ar
     7    38    39    1
     8    38    40   ar
     9    40    41   ar
    10    41    42    1
    11    41    43   ar
    12    43    48    1
    13    48    49    3
    14    31     1    1
    15     1     2   ar
    16     2     3   ar
    17     3     4   ar
    18     4     5   ar
    19     5     6   ar
    20     6     7   ar
    21     7    18    1
    22    18    19    3
    23    19    20    1
    24    20    21    1
    25    21    22    1
    26    22    23    1
    27    23    24    2
    28    23    25   am
    29    25    26    1
    30    26    27    1
    31    27    28    1
    32    28    29    1
    33    29    30    1
    34     7     8   ar
    35     8     9   ar
    36     9    10    2
    37     9    11   ar
    38    11    12    1
    39    12    13   ar
    40    13    14   ar
    41    14    15   ar
    42    15    16   ar
    43    16    17   ar
    44    43    36   ar
    45    11     1   ar
    46    17    12   ar
    47     8     3   ar
    48    30    25    1
    49    34    35    1
    50    39    44    1
    51    39    45    1
    52    42    46    1
    53    42    47    1
@<TRIPOS>MOLECULE
*****
 49 53 0 0 0
SMALL
GASTEIGER

@<TRIPOS>ATOM
      1 C         140.7933  140.1777  164.2770 C.ar    1  UNL1        0.1443
      2 N         141.6108  139.0351  163.7517 N.ar    1  UNL1       -0.2302
      3 C         141.8124  138.8741  162.2740 C.ar    1  UNL1        0.0878
      4 C         142.6299  137.7314  161.7487 C.ar    1  UNL1        0.0193
      5 C         142.8315  137.5705  160.2711 C.ar    1  UNL1        0.0022
      6 C         142.2155  138.5522  159.3188 C.ar    1  UNL1        0.0085
      7 C         141.3980  139.6948  159.8441 C.ar    1  UNL1        0.0477
      8 C         141.1965  139.8558  161.3217 C.ar    1  UNL1        0.0818
      9 C         140.3789  140.9985  161.8471 C.ar    1  UNL1        0.2676
     10 O         139.7630  141.9802  160.8948 O.2     1  UNL1       -0.2665
     11 N         140.1773  141.1594  163.3247 N.ar    1  UNL1       -0.2613
     12 C         139.3598  142.3021  163.8501 C.ar    1  UNL1        0.0680
     13 C         140.0374  143.5541  164.3227 C.ar    1  UNL1        0.0176
     14 C         139.2199  144.6968  164.8481 C.ar    1  UNL1        0.0015
     15 C         137.7249  144.5874  164.9008 C.ar    1  UNL1        0.0001
     16 C         137.0473  143.3354  164.4282 C.ar    1  UNL1        0.0015
     17 C         137.8647  142.1928  163.9028 C.ar    1  UNL1        0.0176
     18 C         140.7821  140.6765  158.8918 C.1     1  UNL1       -0.0642
     19 C         140.1662  141.6582  157.9394 C.1     1  UNL1       -0.0864
     20 C         139.5503  142.6399  156.9871 C.3     1  UNL1        0.0769
     21 C         139.5790  144.1067  157.2993 C.3     1  UNL1        0.0235
     22 C         140.8132  144.7245  157.8869 C.3     1  UNL1        0.0863
     23 C         140.9306  144.8982  159.3722 C.2     1  UNL1        0.2258
     24 O         139.9393  145.7498  160.1084 O.2     1  UNL1       -0.2749
     25 N         142.0393  144.2203  160.1213 N.am    1  UNL1       -0.2744
     26 C         142.1568  144.3940  161.6065 C.3     1  UNL1        0.1255
     27 C         143.2656  143.7160  162.3555 C.3     1  UNL1        0.1636
     28 O         144.2569  142.8644  161.6193 O.3     1  UNL1       -0.3501
     29 C         144.1394  142.6907  160.1340 C.3     1  UNL1        0.1636
     30 C         143.0307  143.3686  159.3850 C.3     1  UNL1        0.1255
     31 C         140.5916  140.3387  165.7547 C.3     1  UNL1        0.1282
     32 C         138.4536  138.8682  165.6287 C.3     1  UNL1        0.0022
     33 C         139.3884  139.7364  166.4175 C.3     1  UNL1        0.0273
     34 N         141.5933  141.1020  166.5695 N.pl3   1  UNL1       -0.3129
     35 H         142.2079  141.7327  166.1293 H       1  UNL1        0.1486
     36 C         141.6586  140.9045  168.0550 C.ar    1  UNL1        0.1440
     37 N         140.9205  141.8375  168.9687 N.ar    1  UNL1       -0.1985
     38 C         140.9857  141.6400  170.4543 C.ar    1  UNL1        0.2160
     39 N         140.2477  142.5729  171.3680 N.pl3   1  UNL1       -0.3274
     40 N         141.7890  140.5096  171.0261 N.ar    1  UNL1       -0.1987
     41 C         142.5271  139.5766  170.1123 C.ar    1  UNL1        0.1407
     42 N         143.3303  138.4462  170.6840 N.pl3   1  UNL1       -0.3419
     43 C         142.4618  139.7741  168.6268 C.ar    1  UNL1        0.1308
     44 H         139.7205  143.3148  170.9927 H       1  UNL1        0.1452
     45 H         140.2905  142.4433  172.3430 H       1  UNL1        0.1452
     46 H         143.3732  138.3166  171.6590 H       1  UNL1        0.1437
     47 H         143.8148  137.8339  170.0843 H       1  UNL1        0.1437
     48 C         143.1999  138.8412  167.7131 C.1     1  UNL1        0.1061
     49 N         143.9380  137.9082  166.7993 N.1     1  UNL1       -0.1906
@<TRIPOS>BOND
     1    32    33    1
     2    31    33    1
     3    31    34    1
     4    34    36    1
     5    36    37   ar
     6    37    38   ar
     7    38    39    1
     8    38    40   ar
     9    40    41   ar
    10    41    42    1
    11    41    43   ar
    12    43    48    1
    13    48    49    3
    14    31     1    1
    15     1     2   ar
    16     2     3   ar
    17     3     4   ar
    18     4     5   ar
    19     5     6   ar
    20     6     7   ar
    21     7    18    1
    22    18    19    3
    23    19    20    1
    24    20    21    1
    25    21    22    1
    26    22    23    1
    27    23    24    2
    28    23    25   am
    29    25    26    1
    30    26    27    1
    31    27    28    1
    32    28    29    1
    33    29    30    1
    34     7     8   ar
    35     8     9   ar
    36     9    10    2
    37     9    11   ar
    38    11    12    1
    39    12    13   ar
    40    13    14   ar
    41    14    15   ar
    42    15    16   ar
    43    16    17   ar
    44    43    36   ar
    45    11     1   ar
    46    17    12   ar
    47     8     3   ar
    48    30    25    1
    49    34    35    1
    50    39    44    1
    51    39    45    1
    52    42    46    1
    53    42    47    1
@<TRIPOS>MOLECULE
*****
 49 53 0 0 0
SMALL
GASTEIGER

@<TRIPOS>ATOM
      1 C         140.8497  140.9098  164.6233 C.ar    1  UNL1        0.1443
      2 N         139.9688  139.7036  164.4854 N.ar    1  UNL1       -0.2302
      3 C         139.3231  139.3931  163.1676 C.ar    1  UNL1        0.0878
      4 C         138.4422  138.1869  163.0297 C.ar    1  UNL1        0.0193
      5 C         137.7966  137.8764  161.7119 C.ar    1  UNL1        0.0022
      6 C         138.0318  138.7722  160.5319 C.ar    1  UNL1        0.0085
      7 C         138.9127  139.9784  160.6698 C.ar    1  UNL1        0.0477
      8 C         139.5584  140.2888  161.9876 C.ar    1  UNL1        0.0818
      9 C         140.4393  141.4951  162.1255 C.ar    1  UNL1        0.2676
     10 O         140.6746  142.3908  160.9455 O.2     1  UNL1       -0.2665
     11 N         141.0850  141.8055  163.4433 N.ar    1  UNL1       -0.2613
     12 C         141.9660  143.0118  163.5812 C.ar    1  UNL1        0.0680
     13 C         143.4573  142.8620  163.5225 C.ar    1  UNL1        0.0176
     14 C         144.3382  144.0681  163.6604 C.ar    1  UNL1        0.0015
     15 C         143.7279  145.4241  163.8570 C.ar    1  UNL1        0.0001
     16 C         142.2365  145.5739  163.9157 C.ar    1  UNL1        0.0015
     17 C         141.3556  144.3678  163.7778 C.ar    1  UNL1        0.0176
     18 C         139.1480  140.8741  159.4898 C.1     1  UNL1       -0.0642
     19 C         139.3832  141.7698  158.3098 C.1     1  UNL1       -0.0864
     20 C         139.6184  142.6656  157.1299 C.3     1  UNL1        0.0769
     21 C         141.0084  143.1237  156.8014 C.3     1  UNL1        0.0235
     22 C         142.1736  142.2067  157.0281 C.3     1  UNL1        0.0863
     23 C         142.9124  142.2412  158.3332 C.2     1  UNL1        0.2258
     24 O         143.4350  143.5428  158.8650 O.2     1  UNL1       -0.2749
     25 N         143.1285  140.9742  159.1064 N.am    1  UNL1       -0.2744
     26 C         143.8671  141.0087  160.4114 C.3     1  UNL1        0.1255
     27 C         144.0832  139.7416  161.1846 C.3     1  UNL1        0.1636
     28 O         143.5606  138.4401  160.6528 O.3     1  UNL1       -0.3501
     29 C         142.8219  138.4055  159.3478 C.3     1  UNL1        0.1636
     30 C         142.6058  139.6726  158.5745 C.3     1  UNL1        0.1255
     31 C         141.4955  141.2203  165.9411 C.3     1  UNL1        0.1282
     32 C         143.3756  139.4935  165.4589 C.3     1  UNL1        0.0022
     33 C         142.8255  140.6180  166.2851 C.3     1  UNL1        0.0273
     34 N         140.8111  142.1331  166.9150 N.pl3   1  UNL1       -0.3129
     35 H         140.1957  142.8288  166.5887 H       1  UNL1        0.1486
     36 C         141.0645  141.9860  168.3861 C.ar    1  UNL1        0.1440
     37 N         142.0218  142.9103  169.0784 N.ar    1  UNL1       -0.1985
     38 C         142.2752  142.7632  170.5495 C.ar    1  UNL1        0.2160
     39 N         143.2325  143.6875  171.2418 N.pl3   1  UNL1       -0.3274
     40 N         141.5712  141.6918  171.3284 N.ar    1  UNL1       -0.1987
     41 C         140.6138  140.7675  170.6360 C.ar    1  UNL1        0.1407
     42 N         139.9099  139.6961  171.4149 N.pl3   1  UNL1       -0.3419
     43 C         140.3605  140.9146  169.1650 C.ar    1  UNL1        0.1308
     44 H         143.6945  144.3906  170.7306 H       1  UNL1        0.1452
     45 H         143.3988  143.5909  172.2073 H       1  UNL1        0.1452
     46 H         140.0762  139.5996  172.3804 H       1  UNL1        0.1437
     47 H         139.2816  139.0895  170.9605 H       1  UNL1        0.1437
     48 C         139.4032  139.9904  168.4727 C.1     1  UNL1        0.1061
     49 N         138.4459  139.0661  167.7804 N.1     1  UNL1       -0.1906
@<TRIPOS>BOND
     1    32    33    1
     2    31    33    1
     3    31    34    1
     4    34    36    1
     5    36    37   ar
     6    37    38   ar
     7    38    39    1
     8    38    40   ar
     9    40    41   ar
    10    41    42    1
    11    41    43   ar
    12    43    48    1
    13    48    49    3
    14    31     1    1
    15     1     2   ar
    16     2     3   ar
    17     3     4   ar
    18     4     5   ar
    19     5     6   ar
    20     6     7   ar
    21     7    18    1
    22    18    19    3
    23    19    20    1
    24    20    21    1
    25    21    22    1
    26    22    23    1
    27    23    24    2
    28    23    25   am
    29    25    26    1
    30    26    27    1
    31    27    28    1
    32    28    29    1
    33    29    30    1
    34     7     8   ar
    35     8     9   ar
    36     9    10    2
    37     9    11   ar
    38    11    12    1
    39    12    13   ar
    40    13    14   ar
    41    14    15   ar
    42    15    16   ar
    43    16    17   ar
    44    43    36   ar
    45    11     1   ar
    46    17    12   ar
    47     8     3   ar
    48    30    25    1
    49    34    35    1
    50    39    44    1
    51    39    45    1
    52    42    46    1
    53    42    47    1
@<TRIPOS>MOLECULE
*****
 49 53 0 0 0
SMALL
GASTEIGER

@<TRIPOS>ATOM
      1 C         141.9987  144.3702  161.9910 C.ar    1  UNL1        0.1443
      2 N         141.2287  145.2506  161.0520 N.ar    1  UNL1       -0.2302
      3 C         141.0468  144.8422  159.6201 C.ar    1  UNL1        0.0878
      4 C         140.2769  145.7227  158.6810 C.ar    1  UNL1        0.0193
      5 C         140.0950  145.3142  157.2492 C.ar    1  UNL1        0.0022
      6 C         140.6831  144.0253  156.7565 C.ar    1  UNL1        0.0085
      7 C         141.4531  143.1448  157.6956 C.ar    1  UNL1        0.0477
      8 C         141.6349  143.5533  159.1273 C.ar    1  UNL1        0.0818
      9 C         142.4049  142.6728  160.0665 C.ar    1  UNL1        0.2676
     10 O         142.9930  141.3838  159.5738 O.2     1  UNL1       -0.2665
     11 N         142.5868  143.0812  161.4983 N.ar    1  UNL1       -0.2613
     12 C         143.3568  142.2007  162.4374 C.ar    1  UNL1        0.0680
     13 C         144.8560  142.2459  162.4484 C.ar    1  UNL1        0.0176
     14 C         145.6260  141.3654  163.3875 C.ar    1  UNL1        0.0015
     15 C         144.8967  140.4399  164.3156 C.ar    1  UNL1        0.0001
     16 C         143.3975  140.3947  164.3046 C.ar    1  UNL1        0.0015
     17 C         142.6275  141.2752  163.3655 C.ar    1  UNL1        0.0176
     18 C         142.0412  141.8559  157.2028 C.1     1  UNL1       -0.0642
     19 C         142.6293  140.5670  156.7101 C.1     1  UNL1       -0.0864
     20 C         143.2174  139.2780  156.2174 C.3     1  UNL1        0.0769
     21 C         142.8937  137.9906  156.9156 C.3     1  UNL1        0.0235
     22 C         141.8141  137.9527  157.9564 C.3     1  UNL1        0.0863
     23 C         142.1740  137.9915  159.4121 C.2     1  UNL1        0.2258
     24 O         143.6071  137.8578  159.8342 O.2     1  UNL1       -0.2749
     25 N         141.1007  138.1640  160.4456 N.am    1  UNL1       -0.2744
     26 C         141.4605  138.2028  161.9013 C.3     1  UNL1        0.1255
     27 C         140.3872  138.3753  162.9349 C.3     1  UNL1        0.1636
     28 O         138.9541  138.5090  162.5128 O.3     1  UNL1       -0.3501
     29 C         138.5942  138.4702  161.0570 C.3     1  UNL1        0.1636
     30 C         139.6675  138.2977  160.0235 C.3     1  UNL1        0.1255
     31 C         142.1805  144.7786  163.4229 C.3     1  UNL1        0.1282
     32 C         144.1731  144.4579  165.0589 C.3     1  UNL1        0.0022
     33 C         143.5342  145.1933  163.9183 C.3     1  UNL1        0.0273
     34 N         141.0087  144.7723  164.3592 N.pl3   1  UNL1       -0.3129
     35 H         140.5645  145.6179  164.5976 H       1  UNL1        0.1486
     36 C         140.5137  143.4775  164.9324 C.ar    1  UNL1        0.1440
     37 N         141.1731  142.8942  166.1468 N.ar    1  UNL1       -0.1985
     38 C         140.6781  141.5994  166.7201 C.ar    1  UNL1        0.2160
     39 N         141.3376  141.0161  167.9345 N.pl3   1  UNL1       -0.3274
     40 N         139.5237  140.8880  166.0789 N.ar    1  UNL1       -0.1987
     41 C         138.8642  141.4714  164.8645 C.ar    1  UNL1        0.1407
     42 N         137.7097  140.7600  164.2233 N.pl3   1  UNL1       -0.3419
     43 C         139.3592  142.7661  164.2912 C.ar    1  UNL1        0.1308
     44 H         142.0953  141.4830  168.3553 H       1  UNL1        0.1452
     45 H         141.0127  140.1663  168.3108 H       1  UNL1        0.1452
     46 H         137.3848  139.9103  164.5995 H       1  UNL1        0.1437
     47 H         137.2769  141.1429  163.4262 H       1  UNL1        0.1437
     48 C         138.6998  143.3495  163.0768 C.1     1  UNL1        0.1061
     49 N         138.0403  143.9329  161.8624 N.1     1  UNL1       -0.1906
@<TRIPOS>BOND
     1    32    33    1
     2    31    33    1
     3    31    34    1
     4    34    36    1
     5    36    37   ar
     6    37    38   ar
     7    38    39    1
     8    38    40   ar
     9    40    41   ar
    10    41    42    1
    11    41    43   ar
    12    43    48    1
    13    48    49    3
    14    31     1    1
    15     1     2   ar
    16     2     3   ar
    17     3     4   ar
    18     4     5   ar
    19     5     6   ar
    20     6     7   ar
    21     7    18    1
    22    18    19    3
    23    19    20    1
    24    20    21    1
    25    21    22    1
    26    22    23    1
    27    23    24    2
    28    23    25   am
    29    25    26    1
    30    26    27    1
    31    27    28    1
    32    28    29    1
    33    29    30    1
    34     7     8   ar
    35     8     9   ar
    36     9    10    2
    37     9    11   ar
    38    11    12    1
    39    12    13   ar
    40    13    14   ar
    41    14    15   ar
    42    15    16   ar
    43    16    17   ar
    44    43    36   ar
    45    11     1   ar
    46    17    12   ar
    47     8     3   ar
    48    30    25    1
    49    34    35    1
    50    39    44    1
    51    39    45    1
    52    42    46    1
    53    42    47    1
@<TRIPOS>MOLECULE
*****
 49 53 0 0 0
SMALL
GASTEIGER

@<TRIPOS>ATOM
      1 C         143.2758  141.1198  159.6098 C.ar    1  UNL1        0.1443
      2 N         144.4394  141.0714  160.5551 N.ar    1  UNL1       -0.2302
      3 C         144.3159  141.6640  161.9276 C.ar    1  UNL1        0.0878
      4 C         145.4795  141.6157  162.8729 C.ar    1  UNL1        0.0193
      5 C         145.3559  142.2082  164.2453 C.ar    1  UNL1        0.0022
      6 C         144.0687  142.8492  164.6724 C.ar    1  UNL1        0.0085
      7 C         142.9051  142.8975  163.7271 C.ar    1  UNL1        0.0477
      8 C         143.0287  142.3049  162.3547 C.ar    1  UNL1        0.0818
      9 C         141.8651  142.3533  161.4093 C.ar    1  UNL1        0.2676
     10 O         140.5779  142.9942  161.8364 O.2     1  UNL1       -0.2665
     11 N         141.9886  141.7607  160.0369 N.ar    1  UNL1       -0.2613
     12 C         140.8250  141.8090  159.0915 C.ar    1  UNL1        0.0680
     13 C         140.6126  143.0146  158.2246 C.ar    1  UNL1        0.0176
     14 C         139.4490  143.0630  157.2792 C.ar    1  UNL1        0.0015
     15 C         138.4979  141.9058  157.2008 C.ar    1  UNL1        0.0001
     16 C         138.7103  140.7002  158.0677 C.ar    1  UNL1        0.0015
     17 C         139.8738  140.6519  159.0130 C.ar    1  UNL1        0.0176
     18 C         141.6180  143.5385  164.1542 C.1     1  UNL1       -0.0642
     19 C         140.3308  144.1794  164.5813 C.1     1  UNL1       -0.0864
     20 C         139.0437  144.8203  165.0084 C.3     1  UNL1        0.0769
     21 C         137.7379  144.1331  164.7386 C.3     1  UNL1        0.0235
     22 C         137.6652  142.6349  164.7370 C.3     1  UNL1        0.0863
     23 C         137.6600  141.8857  163.4375 C.2     1  UNL1        0.2258
     24 O         137.3002  142.5937  162.1650 O.2     1  UNL1       -0.2749
     25 N         138.0148  140.4285  163.4105 N.am    1  UNL1       -0.2744
     26 C         138.0096  139.6792  162.1111 C.3     1  UNL1        0.1255
     27 C         138.3643  138.2220  162.0841 C.3     1  UNL1        0.1636
     28 O         138.7242  137.5141  163.3565 O.3     1  UNL1       -0.3501
     29 C         138.7293  138.2633  164.6561 C.3     1  UNL1        0.1636
     30 C         138.3746  139.7205  164.6831 C.3     1  UNL1        0.1255
     31 C         143.3993  140.5272  158.2373 C.3     1  UNL1        0.1282
     32 C         142.6958  138.2044  159.1644 C.3     1  UNL1        0.0022
     33 C         143.1983  139.0545  158.0354 C.3     1  UNL1        0.0273
     34 N         143.7238  141.4073  157.0668 N.pl3   1  UNL1       -0.3129
     35 H         143.0032  141.7301  156.4789 H       1  UNL1        0.1486
     36 C         145.1464  141.7956  156.7921 C.ar    1  UNL1        0.1440
     37 N         145.9419  142.5183  157.8384 N.ar    1  UNL1       -0.1985
     38 C         147.3646  142.9067  157.5637 C.ar    1  UNL1        0.2160
     39 N         148.1601  143.6294  158.6100 N.pl3   1  UNL1       -0.3274
     40 N         147.9916  142.5723  156.2427 N.ar    1  UNL1       -0.1987
     41 C         147.1959  141.8495  155.1963 C.ar    1  UNL1        0.1407
     42 N         147.8229  141.5152  153.8753 N.pl3   1  UNL1       -0.3419
     43 C         145.7734  141.4612  155.4711 C.ar    1  UNL1        0.1308
     44 H         147.7486  143.8488  159.4770 H       1  UNL1        0.1452
     45 H         149.0938  143.8842  158.4297 H       1  UNL1        0.1452
     46 H         148.7566  141.7700  153.6950 H       1  UNL1        0.1437
     47 H         147.3008  141.0408  153.1886 H       1  UNL1        0.1437
     48 C         144.9778  140.7385  154.4248 C.1     1  UNL1        0.1061
     49 N         144.1822  140.0158  153.3784 N.1     1  UNL1       -0.1906
@<TRIPOS>BOND
     1    32    33    1
     2    31    33    1
     3    31    34    1
     4    34    36    1
     5    36    37   ar
     6    37    38   ar
     7    38    39    1
     8    38    40   ar
     9    40    41   ar
    10    41    42    1
    11    41    43   ar
    12    43    48    1
    13    48    49    3
    14    31     1    1
    15     1     2   ar
    16     2     3   ar
    17     3     4   ar
    18     4     5   ar
    19     5     6   ar
    20     6     7   ar
    21     7    18    1
    22    18    19    3
    23    19    20    1
    24    20    21    1
    25    21    22    1
    26    22    23    1
    27    23    24    2
    28    23    25   am
    29    25    26    1
    30    26    27    1
    31    27    28    1
    32    28    29    1
    33    29    30    1
    34     7     8   ar
    35     8     9   ar
    36     9    10    2
    37     9    11   ar
    38    11    12    1
    39    12    13   ar
    40    13    14   ar
    41    14    15   ar
    42    15    16   ar
    43    16    17   ar
    44    43    36   ar
    45    11     1   ar
    46    17    12   ar
    47     8     3   ar
    48    30    25    1
    49    34    35    1
    50    39    44    1
    51    39    45    1
    52    42    46    1
    53    42    47    1
@<TRIPOS>MOLECULE
*****
 49 53 0 0 0
SMALL
GASTEIGER

@<TRIPOS>ATOM
      1 C         140.8900  140.9047  164.5575 C.ar    1  UNL1        0.1443
      2 N         140.0087  139.6944  164.4673 N.ar    1  UNL1       -0.2302
      3 C         139.3519  139.3401  163.1661 C.ar    1  UNL1        0.0878
      4 C         138.4705  138.1297  163.0759 C.ar    1  UNL1        0.0193
      5 C         137.8138  137.7754  161.7747 C.ar    1  UNL1        0.0022
      6 C         138.0384  138.6316  160.5637 C.ar    1  UNL1        0.0085
      7 C         138.9197  139.8419  160.6539 C.ar    1  UNL1        0.0477
      8 C         139.5765  140.1962  161.9551 C.ar    1  UNL1        0.0818
      9 C         140.4579  141.4066  162.0453 C.ar    1  UNL1        0.2676
     10 O         140.6825  142.2627  160.8342 O.2     1  UNL1       -0.2665
     11 N         141.1146  141.7608  163.3465 N.ar    1  UNL1       -0.2613
     12 C         141.9961  142.9713  163.4367 C.ar    1  UNL1        0.0680
     13 C         143.4564  142.8615  163.1119 C.ar    1  UNL1        0.0176
     14 C         144.3378  144.0719  163.2021 C.ar    1  UNL1        0.0015
     15 C         143.7589  145.3919  163.6171 C.ar    1  UNL1        0.0001
     16 C         142.2985  145.5017  163.9418 C.ar    1  UNL1        0.0015
     17 C         141.4171  144.2913  163.8516 C.ar    1  UNL1        0.0176
     18 C         139.1444  140.6980  159.4428 C.1     1  UNL1       -0.0642
     19 C         139.3690  141.5542  158.2318 C.1     1  UNL1       -0.0864
     20 C         139.5936  142.4103  157.0208 C.3     1  UNL1        0.0769
     21 C         140.9606  142.9551  156.7305 C.3     1  UNL1        0.0235
     22 C         141.4288  144.2075  157.4105 C.3     1  UNL1        0.0863
     23 C         140.4696  145.3363  157.6464 C.2     1  UNL1        0.2258
     24 O         139.8425  145.5179  158.9968 O.2     1  UNL1       -0.2749
     25 N         140.1375  146.2836  156.5317 N.am    1  UNL1       -0.2744
     26 C         139.1782  147.4124  156.7675 C.3     1  UNL1        0.1255
     27 C         138.8461  148.3597  155.6529 C.3     1  UNL1        0.1636
     28 O         139.4732  148.1781  154.3025 O.3     1  UNL1       -0.3501
     29 C         140.4325  147.0493  154.0666 C.3     1  UNL1        0.1636
     30 C         140.7646  146.1020  155.1812 C.3     1  UNL1        0.1255
     31 C         141.5468  141.2590  165.8587 C.3     1  UNL1        0.1282
     32 C         143.5166  139.6471  165.3377 C.3     1  UNL1        0.0022
     33 C         142.9201  140.7426  166.1708 C.3     1  UNL1        0.0273
     34 N         140.8303  142.1297  166.8479 N.pl3   1  UNL1       -0.3129
     35 H         140.1875  142.8059  166.5335 H       1  UNL1        0.1486
     36 C         141.0931  141.9702  168.3160 C.ar    1  UNL1        0.1440
     37 N         142.0696  142.8760  169.0059 N.ar    1  UNL1       -0.1985
     38 C         142.3325  142.7165  170.4741 C.ar    1  UNL1        0.2160
     39 N         143.3089  143.6224  171.1639 N.pl3   1  UNL1       -0.3274
     40 N         141.6188  141.6512  171.2524 N.ar    1  UNL1       -0.1987
     41 C         140.6422  140.7454  170.5624 C.ar    1  UNL1        0.1407
     42 N         139.9286  139.6800  171.3407 N.pl3   1  UNL1       -0.3419
     43 C         140.3794  140.9049  169.0943 C.ar    1  UNL1        0.1308
     44 H         143.7773  144.3216  170.6531 H       1  UNL1        0.1452
     45 H         143.4815  143.5177  172.1275 H       1  UNL1        0.1452
     46 H         140.1011  139.5754  172.3043 H       1  UNL1        0.1437
     47 H         139.2876  139.0855  170.8880 H       1  UNL1        0.1437
     48 C         139.4029  139.9991  168.4045 C.1     1  UNL1        0.1061
     49 N         138.4263  139.0932  167.7147 N.1     1  UNL1       -0.1906
@<TRIPOS>BOND
     1    32    33    1
     2    31    33    1
     3    31    34    1
     4    34    36    1
     5    36    37   ar
     6    37    38   ar
     7    38    39    1
     8    38    40   ar
     9    40    41   ar
    10    41    42    1
    11    41    43   ar
    12    43    48    1
    13    48    49    3
    14    31     1    1
    15     1     2   ar
    16     2     3   ar
    17     3     4   ar
    18     4     5   ar
    19     5     6   ar
    20     6     7   ar
    21     7    18    1
    22    18    19    3
    23    19    20    1
    24    20    21    1
    25    21    22    1
    26    22    23    1
    27    23    24    2
    28    23    25   am
    29    25    26    1
    30    26    27    1
    31    27    28    1
    32    28    29    1
    33    29    30    1
    34     7     8   ar
    35     8     9   ar
    36     9    10    2
    37     9    11   ar
    38    11    12    1
    39    12    13   ar
    40    13    14   ar
    41    14    15   ar
    42    15    16   ar
    43    16    17   ar
    44    43    36   ar
    45    11     1   ar
    46    17    12   ar
    47     8     3   ar
    48    30    25    1
    49    34    35    1
    50    39    44    1
    51    39    45    1
    52    42    46    1
    53    42    47    1
@<TRIPOS>MOLECULE
*****
 49 53 0 0 0
SMALL
GASTEIGER

@<TRIPOS>ATOM
      1 C         141.2091  142.7174  164.5195 C.ar    1  UNL1        0.1443
      2 N         140.9998  144.1227  164.0386 N.ar    1  UNL1       -0.2302
      3 C         140.6440  144.3795  162.6042 C.ar    1  UNL1        0.0878
      4 C         140.4347  145.7848  162.1233 C.ar    1  UNL1        0.0193
      5 C         140.0789  146.0414  160.6889 C.ar    1  UNL1        0.0022
      6 C         139.9324  144.8928  159.7355 C.ar    1  UNL1        0.0085
      7 C         140.1416  143.4875  160.2163 C.ar    1  UNL1        0.0477
      8 C         140.4974  143.2308  161.6507 C.ar    1  UNL1        0.0818
      9 C         140.7067  141.8255  162.1317 C.ar    1  UNL1        0.2676
     10 O         140.5602  140.6768  161.1782 O.2     1  UNL1       -0.2665
     11 N         141.0625  141.5688  163.5660 N.ar    1  UNL1       -0.2613
     12 C         141.2718  140.1634  164.0470 C.ar    1  UNL1        0.0680
     13 C         142.6598  139.6029  164.1443 C.ar    1  UNL1        0.0176
     14 C         142.8691  138.1977  164.6253 C.ar    1  UNL1        0.0015
     15 C         141.6905  137.3529  165.0088 C.ar    1  UNL1        0.0001
     16 C         140.3026  137.9134  164.9115 C.ar    1  UNL1        0.0015
     17 C         140.0932  139.3187  164.4306 C.ar    1  UNL1        0.0176
     18 C         139.9951  142.3388  159.2628 C.1     1  UNL1       -0.0642
     19 C         139.8485  141.1902  158.3094 C.1     1  UNL1       -0.0864
     20 C         139.7020  140.0415  157.3559 C.3     1  UNL1        0.0769
     21 C         140.2851  138.7028  157.6991 C.3     1  UNL1        0.0235
     22 C         141.2577  138.0466  156.7646 C.3     1  UNL1        0.0863
     23 C         140.8504  136.8256  155.9943 C.2     1  UNL1        0.2258
     24 O         139.6049  136.8468  155.1587 O.2     1  UNL1       -0.2749
     25 N         141.6887  135.5833  156.0596 N.am    1  UNL1       -0.2744
     26 C         141.2814  134.3624  155.2893 C.3     1  UNL1        0.1255
     27 C         142.1197  133.1202  155.3546 C.3     1  UNL1        0.1636
     28 O         143.3652  133.0989  156.1902 O.3     1  UNL1       -0.3501
     29 C         143.7725  134.3199  156.9605 C.3     1  UNL1        0.1636
     30 C         142.9342  135.5621  156.8952 C.3     1  UNL1        0.1255
     31 C         141.5649  142.4607  165.9540 C.3     1  UNL1        0.1282
     32 C         144.0641  143.0245  165.5227 C.3     1  UNL1        0.0022
     33 C         143.0048  142.3799  166.3666 C.3     1  UNL1        0.0273
     34 N         140.4809  142.2848  166.9757 N.pl3   1  UNL1       -0.3129
     35 H         139.5361  142.3088  166.7000 H       1  UNL1        0.1486
     36 C         140.8363  142.0724  168.4174 C.ar    1  UNL1        0.1440
     37 N         141.7915  143.0061  169.0997 N.ar    1  UNL1       -0.1985
     38 C         142.1471  142.7938  170.5415 C.ar    1  UNL1        0.2160
     39 N         143.1023  143.7275  171.2238 N.pl3   1  UNL1       -0.3274
     40 N         141.5473  141.6476  171.3008 N.ar    1  UNL1       -0.1987
     41 C         140.5921  140.7138  170.6184 C.ar    1  UNL1        0.1407
     42 N         139.9923  139.5676  171.3777 N.pl3   1  UNL1       -0.3419
     43 C         140.2366  140.9262  169.1767 C.ar    1  UNL1        0.1308
     44 H         143.4959  144.4798  170.7254 H       1  UNL1        0.1452
     45 H         143.3356  143.5881  172.1700 H       1  UNL1        0.1452
     46 H         140.2257  139.4282  172.3239 H       1  UNL1        0.1437
     47 H         139.3654  138.9547  170.9298 H       1  UNL1        0.1437
     48 C         139.2814  139.9924  168.4943 C.1     1  UNL1        0.1061
     49 N         138.3261  139.0586  167.8120 N.1     1  UNL1       -0.1906
@<TRIPOS>BOND
     1    32    33    1
     2    31    33    1
     3    31    34    1
     4    34    36    1
     5    36    37   ar
     6    37    38   ar
     7    38    39    1
     8    38    40   ar
     9    40    41   ar
    10    41    42    1
    11    41    43   ar
    12    43    48    1
    13    48    49    3
    14    31     1    1
    15     1     2   ar
    16     2     3   ar
    17     3     4   ar
    18     4     5   ar
    19     5     6   ar
    20     6     7   ar
    21     7    18    1
    22    18    19    3
    23    19    20    1
    24    20    21    1
    25    21    22    1
    26    22    23    1
    27    23    24    2
    28    23    25   am
    29    25    26    1
    30    26    27    1
    31    27    28    1
    32    28    29    1
    33    29    30    1
    34     7     8   ar
    35     8     9   ar
    36     9    10    2
    37     9    11   ar
    38    11    12    1
    39    12    13   ar
    40    13    14   ar
    41    14    15   ar
    42    15    16   ar
    43    16    17   ar
    44    43    36   ar
    45    11     1   ar
    46    17    12   ar
    47     8     3   ar
    48    30    25    1
    49    34    35    1
    50    39    44    1
    51    39    45    1
    52    42    46    1
    53    42    47    1
@<TRIPOS>MOLECULE
*****
 49 53 0 0 0
SMALL
GASTEIGER

@<TRIPOS>ATOM
      1 C         143.7108  141.6522  159.3267 C.ar    1  UNL1        0.1443
      2 N         144.7326  142.0848  160.3360 N.ar    1  UNL1       -0.2302
      3 C         144.6463  141.5908  161.7498 C.ar    1  UNL1        0.0878
      4 C         145.6681  142.0234  162.7591 C.ar    1  UNL1        0.0193
      5 C         145.5817  141.5294  164.1727 C.ar    1  UNL1        0.0022
      6 C         144.4736  140.6028  164.5771 C.ar    1  UNL1        0.0085
      7 C         143.4518  140.1702  163.5678 C.ar    1  UNL1        0.0477
      8 C         143.5382  140.6642  162.1541 C.ar    1  UNL1        0.0818
      9 C         142.5163  140.2316  161.1447 C.ar    1  UNL1        0.2676
     10 O         141.4082  139.3050  161.5491 O.2     1  UNL1       -0.2665
     11 N         142.6027  140.7256  159.7311 N.ar    1  UNL1       -0.2613
     12 C         141.5808  140.2930  158.7217 C.ar    1  UNL1        0.0680
     13 C         141.6587  138.9232  158.1154 C.ar    1  UNL1        0.0176
     14 C         140.6369  138.4906  157.1060 C.ar    1  UNL1        0.0015
     15 C         139.5373  139.4278  156.7030 C.ar    1  UNL1        0.0001
     16 C         139.4595  140.7975  157.3093 C.ar    1  UNL1        0.0015
     17 C         140.4812  141.2302  158.3186 C.ar    1  UNL1        0.0176
     18 C         142.3437  139.2437  163.9721 C.1     1  UNL1       -0.0642
     19 C         141.2356  138.3171  164.3765 C.1     1  UNL1       -0.0864
     20 C         140.1274  137.3905  164.7808 C.3     1  UNL1        0.0769
     21 C         138.8123  137.9486  165.2379 C.3     1  UNL1        0.0235
     22 C         138.3669  139.3010  164.7661 C.3     1  UNL1        0.0863
     23 C         138.2549  139.5836  163.2972 C.2     1  UNL1        0.2258
     24 O         138.1372  138.4498  162.3222 O.2     1  UNL1       -0.2749
     25 N         138.2608  140.9999  162.8033 N.am    1  UNL1       -0.2744
     26 C         138.1488  141.2825  161.3344 C.3     1  UNL1        0.1255
     27 C         138.1547  142.6989  160.8406 C.3     1  UNL1        0.1636
     28 O         138.2724  143.8326  161.8156 O.3     1  UNL1       -0.3501
     29 C         138.3843  143.5501  163.2845 C.3     1  UNL1        0.1636
     30 C         138.3785  142.1337  163.7784 C.3     1  UNL1        0.1255
     31 C         143.7971  142.1462  157.9129 C.3     1  UNL1        0.1282
     32 C         143.1863  141.2799  155.5410 C.3     1  UNL1        0.0022
     33 C         144.0094  141.1741  156.7905 C.3     1  UNL1        0.0273
     34 N         143.6711  143.6122  157.6218 N.pl3   1  UNL1       -0.3129
     35 H         144.3953  144.0846  157.1510 H       1  UNL1        0.1486
     36 C         142.4417  144.3585  158.0478 C.ar    1  UNL1        0.1440
     37 N         142.1805  144.6040  159.5044 N.ar    1  UNL1       -0.1985
     38 C         140.9511  145.3504  159.9305 C.ar    1  UNL1        0.2160
     39 N         140.6899  145.5959  161.3870 N.pl3   1  UNL1       -0.3274
     40 N         139.9829  145.8513  158.9001 N.ar    1  UNL1       -0.1987
     41 C         140.2442  145.6057  157.4435 C.ar    1  UNL1        0.1407
     42 N         139.2760  146.1066  156.4131 N.pl3   1  UNL1       -0.3419
     43 C         141.4735  144.8594  157.0174 C.ar    1  UNL1        0.1308
     44 H         141.3254  145.2671  162.0633 H       1  UNL1        0.1452
     45 H         139.8830  146.0857  161.6667 H       1  UNL1        0.1452
     46 H         138.4691  146.5965  156.6928 H       1  UNL1        0.1437
     47 H         139.4474  145.9455  155.4571 H       1  UNL1        0.1437
     48 C         141.7347  144.6139  155.5609 C.1     1  UNL1        0.1061
     49 N         141.9959  144.3684  154.1043 N.1     1  UNL1       -0.1906
@<TRIPOS>BOND
     1    32    33    1
     2    31    33    1
     3    31    34    1
     4    34    36    1
     5    36    37   ar
     6    37    38   ar
     7    38    39    1
     8    38    40   ar
     9    40    41   ar
    10    41    42    1
    11    41    43   ar
    12    43    48    1
    13    48    49    3
    14    31     1    1
    15     1     2   ar
    16     2     3   ar
    17     3     4   ar
    18     4     5   ar
    19     5     6   ar
    20     6     7   ar
    21     7    18    1
    22    18    19    3
    23    19    20    1
    24    20    21    1
    25    21    22    1
    26    22    23    1
    27    23    24    2
    28    23    25   am
    29    25    26    1
    30    26    27    1
    31    27    28    1
    32    28    29    1
    33    29    30    1
    34     7     8   ar
    35     8     9   ar
    36     9    10    2
    37     9    11   ar
    38    11    12    1
    39    12    13   ar
    40    13    14   ar
    41    14    15   ar
    42    15    16   ar
    43    16    17   ar
    44    43    36   ar
    45    11     1   ar
    46    17    12   ar
    47     8     3   ar
    48    30    25    1
    49    34    35    1
    50    39    44    1
    51    39    45    1
    52    42    46    1
    53    42    47    1
@<TRIPOS>MOLECULE
*****
 49 53 0 0 0
SMALL
GASTEIGER

@<TRIPOS>ATOM
      1 C         143.1165  141.0896  161.9844 C.ar    1  UNL1        0.1443
      2 N         143.9844  141.8699  161.0423 N.ar    1  UNL1       -0.2302
      3 C         143.9962  141.5336  159.5805 C.ar    1  UNL1        0.0878
      4 C         144.8641  142.3139  158.6383 C.ar    1  UNL1        0.0193
      5 C         144.8759  141.9776  157.1766 C.ar    1  UNL1        0.0022
      6 C         144.0197  140.8609  156.6570 C.ar    1  UNL1        0.0085
      7 C         143.1518  140.0805  157.5992 C.ar    1  UNL1        0.0477
      8 C         143.1400  140.4169  159.0609 C.ar    1  UNL1        0.0818
      9 C         142.2720  139.6365  160.0031 C.ar    1  UNL1        0.2676
     10 O         141.4159  138.5198  159.4836 O.2     1  UNL1       -0.2665
     11 N         142.2603  139.9729  161.4649 N.ar    1  UNL1       -0.2613
     12 C         141.3923  139.1925  162.4071 C.ar    1  UNL1        0.0680
     13 C         139.9671  139.6042  162.6291 C.ar    1  UNL1        0.0176
     14 C         139.0991  138.8239  163.5713 C.ar    1  UNL1        0.0015
     15 C         139.6564  137.6320  164.2915 C.ar    1  UNL1        0.0001
     16 C         141.0816  137.2203  164.0695 C.ar    1  UNL1        0.0015
     17 C         141.9496  138.0006  163.1273 C.ar    1  UNL1        0.0176
     18 C         142.2956  138.9638  157.0796 C.1     1  UNL1       -0.0642
     19 C         141.4394  137.8471  156.5600 C.1     1  UNL1       -0.0864
     20 C         140.5832  136.7305  156.0405 C.3     1  UNL1        0.0769
     21 C         141.1955  135.6372  155.2159 C.3     1  UNL1        0.0235
     22 C         142.2970  134.7943  155.7870 C.3     1  UNL1        0.0863
     23 C         142.1179  133.3103  155.9120 C.2     1  UNL1        0.2258
     24 O         140.9360  132.6412  155.2753 O.2     1  UNL1       -0.2749
     25 N         143.1207  132.4954  156.6738 N.am    1  UNL1       -0.2744
     26 C         142.9416  131.0114  156.7989 C.3     1  UNL1        0.1255
     27 C         143.9444  130.1965  157.5607 C.3     1  UNL1        0.1636
     28 O         145.1263  130.8656  158.1974 O.3     1  UNL1       -0.3501
     29 C         145.3055  132.3496  158.0723 C.3     1  UNL1        0.1636
     30 C         144.3026  133.1645  157.3105 C.3     1  UNL1        0.1255
     31 C         143.1047  141.4259  163.4462 C.3     1  UNL1        0.1282
     32 C         145.0861  139.8195  163.9394 C.3     1  UNL1        0.0022
     33 C         143.8914  140.5925  164.4139 C.3     1  UNL1        0.0273
     34 N         142.3061  142.5956  163.9403 N.pl3   1  UNL1       -0.3129
     35 H         142.3713  142.8734  164.8825 H       1  UNL1        0.1486
     36 C         141.4082  143.3421  162.9987 C.ar    1  UNL1        0.1440
     37 N         141.9968  144.1183  161.8581 N.ar    1  UNL1       -0.1985
     38 C         141.0990  144.8648  160.9164 C.ar    1  UNL1        0.2160
     39 N         141.6875  145.6410  159.7758 N.pl3   1  UNL1       -0.3274
     40 N         139.6125  144.8351  161.1155 N.ar    1  UNL1       -0.1987
     41 C         139.0239  144.0588  162.2562 C.ar    1  UNL1        0.1407
     42 N         137.5375  144.0291  162.4553 N.pl3   1  UNL1       -0.3419
     43 C         139.9218  143.3124  163.1978 C.ar    1  UNL1        0.1308
     44 H         142.6631  145.6605  159.6452 H       1  UNL1        0.1452
     45 H         141.0982  146.1309  159.1578 H       1  UNL1        0.1452
     46 H         136.9482  144.5191  161.8373 H       1  UNL1        0.1437
     47 H         137.1512  143.5197  163.2039 H       1  UNL1        0.1437
     48 C         139.3332  142.5362  164.3384 C.1     1  UNL1        0.1061
     49 N         138.7446  141.7600  165.4791 N.1     1  UNL1       -0.1906
@<TRIPOS>BOND
     1    32    33    1
     2    31    33    1
     3    31    34    1
     4    34    36    1
     5    36    37   ar
     6    37    38   ar
     7    38    39    1
     8    38    40   ar
     9    40    41   ar
    10    41    42    1
    11    41    43   ar
    12    43    48    1
    13    48    49    3
    14    31     1    1
    15     1     2   ar
    16     2     3   ar
    17     3     4   ar
    18     4     5   ar
    19     5     6   ar
    20     6     7   ar
    21     7    18    1
    22    18    19    3
    23    19    20    1
    24    20    21    1
    25    21    22    1
    26    22    23    1
    27    23    24    2
    28    23    25   am
    29    25    26    1
    30    26    27    1
    31    27    28    1
    32    28    29    1
    33    29    30    1
    34     7     8   ar
    35     8     9   ar
    36     9    10    2
    37     9    11   ar
    38    11    12    1
    39    12    13   ar
    40    13    14   ar
    41    14    15   ar
    42    15    16   ar
    43    16    17   ar
    44    43    36   ar
    45    11     1   ar
    46    17    12   ar
    47     8     3   ar
    48    30    25    1
    49    34    35    1
    50    39    44    1
    51    39    45    1
    52    42    46    1
    53    42    47    1
