@<TRIPOS>MOLECULE
*****
 40 43 0 0 0
SMALL
GASTEIGER

@<TRIPOS>ATOM
      1 C         142.9523  138.1438  160.1594 C.3     1  UNL1        0.0889
      2 C         142.4492  137.6764  158.8258 C.3     1  UNL1        0.0383
      3 C         142.9777  138.6104  157.7778 C.3     1  UNL1        0.0739
      4 N         143.8075  139.6550  158.4636 N.3     1  UNL1       -0.2700
      5 C         143.7918  139.3666  159.9355 C.3     1  UNL1        0.0919
      6 O         140.3158  138.6077  161.5134 O.2     1  UNL1       -0.2733
      7 C         141.3480  137.7331  162.1613 C.2     1  UNL1        0.2425
      8 N         142.6662  137.5011  161.4843 N.am    1  UNL1       -0.3032
      9 H         143.3437  136.9271  161.9095 H       1  UNL1        0.1495
     10 C         141.0619  137.0905  163.4861 C.3     1  UNL1        0.1759
     11 N         140.7411  137.9417  164.6789 N.am    1  UNL1       -0.2931
     12 C         141.8401  138.6565  165.4076 C.2     1  UNL1        0.2462
     13 O         143.2601  138.5201  164.9437 O.2     1  UNL1       -0.2701
     14 H         139.8092  138.0312  164.9834 H       1  UNL1        0.1502
     15 C         141.5193  139.5076  166.6004 C.ar    1  UNL1        0.0533
     16 C         140.1064  139.6041  167.0947 C.ar    1  UNL1        0.0045
     17 C         139.7856  140.4552  168.2875 C.ar    1  UNL1        0.0001
     18 C         140.8777  141.2099  168.9858 C.ar    1  UNL1        0.0039
     19 C         142.2906  141.1135  168.4915 C.ar    1  UNL1        0.0716
     20 C         142.6114  140.2623  167.2988 C.ar    1  UNL1        0.0084
     21 C         143.3827  141.8682  169.1899 C.3     1  UNL1        0.4186
     22 F         144.4748  142.6229  169.8882 F       1  UNL1       -0.1659
     23 F         143.1607  141.0465  170.4250 F       1  UNL1       -0.1659
     24 F         143.6047  142.6898  167.9547 F       1  UNL1       -0.1659
     25 C         144.5267  140.7888  157.7949 C.3     1  UNL1        0.0897
     26 C         144.2313  142.2040  158.1946 C.3     1  UNL1        0.0897
     27 N         143.8241  142.5158  159.6042 N.3     1  UNL1       -0.2686
     28 C         142.3704  142.6100  159.9615 C.3     1  UNL1        0.0939
     29 C         141.9631  142.9218  161.3712 C.3     1  UNL1        0.1110
     30 N         143.0098  143.1393  162.4234 N.am    1  UNL1       -0.2732
     31 C         142.6026  143.4511  163.8331 C.2     1  UNL1        0.2491
     32 O         143.6492  143.6687  164.8854 O.2     1  UNL1       -0.2699
     33 C         144.4636  143.0451  162.0661 C.3     1  UNL1        0.1110
     34 C         144.8707  142.7334  160.6565 C.3     1  UNL1        0.0939
     35 C         141.1488  143.5453  164.1904 C.ar    1  UNL1        0.0536
     36 C         140.4344  144.8600  164.0855 C.ar    1  UNL1        0.0045
     37 C         138.9807  144.9542  164.4428 C.ar    1  UNL1        0.0001
     38 C         138.2414  143.7337  164.9050 C.ar    1  UNL1        0.0000
     39 C         138.9558  142.4189  165.0099 C.ar    1  UNL1        0.0001
     40 C         140.4096  142.3247  164.6526 C.ar    1  UNL1        0.0045
@<TRIPOS>BOND
     1     6     7    2
     2     7    10    1
     3    10    11    1
     4    11    12   am
     5    12    13    2
     6    12    15    1
     7    15    16   ar
     8    16    17   ar
     9    17    18   ar
    10    18    19   ar
    11    19    21    1
    12    21    22    1
    13    21    23    1
    14    21    24    1
    15    19    20   ar
    16     7     8   am
    17     1     8    1
    18     1     2    1
    19     2     3    1
    20     3     4    1
    21     4    25    1
    22    25    26    1
    23    26    27    1
    24    27    28    1
    25    28    29    1
    26    29    30    1
    27    30    31   am
    28    31    32    2
    29    31    35    1
    30    35    36   ar
    31    36    37   ar
    32    37    38   ar
    33    38    39   ar
    34    39    40   ar
    35    30    33    1
    36    33    34    1
    37     4     5    1
    38    20    15   ar
    39     5     1    1
    40    34    27    1
    41    40    35   ar
    42    11    14    1
    43     8     9    1
@<TRIPOS>MOLECULE
*****
 40 43 0 0 0
SMALL
GASTEIGER

@<TRIPOS>ATOM
      1 C         140.4006  144.2999  160.0094 C.3     1  UNL1        0.0889
      2 C         140.4865  145.1057  158.7471 C.3     1  UNL1        0.0383
      3 C         139.9430  144.2703  157.6261 C.3     1  UNL1        0.0739
      4 N         139.5212  142.9482  158.1955 N.3     1  UNL1       -0.2700
      5 C         139.8039  142.9666  159.6684 C.3     1  UNL1        0.0919
      6 O         143.1724  143.6852  160.9787 O.2     1  UNL1       -0.2733
      7 C         142.2209  144.4413  161.8578 C.2     1  UNL1        0.2425
      8 N         140.8350  144.7487  161.3732 N.am    1  UNL1       -0.3032
      9 H         140.2105  145.2450  161.9502 H       1  UNL1        0.1495
     10 C         142.6552  144.8901  163.2216 C.3     1  UNL1        0.1759
     11 N         142.6862  143.9121  164.3585 N.am    1  UNL1       -0.2931
     12 C         141.4030  143.4004  164.9428 C.2     1  UNL1        0.2462
     13 O         140.0887  143.8667  164.3903 O.2     1  UNL1       -0.2701
     14 H         143.5488  143.6060  164.7212 H       1  UNL1        0.1502
     15 C         141.4340  142.4223  166.0797 C.ar    1  UNL1        0.0533
     16 C         140.6395  142.6922  167.3231 C.ar    1  UNL1        0.0045
     17 C         140.6706  141.7142  168.4600 C.ar    1  UNL1        0.0001
     18 C         141.4960  140.4662  168.3534 C.ar    1  UNL1        0.0039
     19 C         142.2904  140.1963  167.1101 C.ar    1  UNL1        0.0716
     20 C         142.2594  141.1744  165.9732 C.ar    1  UNL1        0.0084
     21 C         143.1158  138.9484  167.0035 C.3     1  UNL1        0.4186
     22 F         143.9412  137.7005  166.8970 F       1  UNL1       -0.1659
     23 F         142.8593  138.6551  168.4520 F       1  UNL1       -0.1659
     24 F         143.3723  139.2417  165.5550 F       1  UNL1       -0.1659
     25 C         138.9217  141.8081  157.4269 C.3     1  UNL1        0.0897
     26 C         138.0083  140.8376  158.1152 C.3     1  UNL1        0.0897
     27 N         138.4720  140.1140  159.3445 N.3     1  UNL1       -0.2686
     28 C         137.7987  140.3649  160.6612 C.3     1  UNL1        0.0939
     29 C         138.2624  139.6412  161.8907 C.3     1  UNL1        0.1110
     30 N         139.3993  138.6666  161.8032 N.am    1  UNL1       -0.2732
     31 C         139.8630  137.9429  163.0326 C.2     1  UNL1        0.2491
     32 O         140.9999  136.9683  162.9452 O.2     1  UNL1       -0.2699
     33 C         140.0726  138.4157  160.4865 C.3     1  UNL1        0.1110
     34 C         139.6089  139.1394  159.2571 C.3     1  UNL1        0.0939
     35 C         139.1897  138.1938  164.3493 C.ar    1  UNL1        0.0536
     36 C         139.1161  139.5868  164.9006 C.ar    1  UNL1        0.0045
     37 C         138.4428  139.8377  166.2173 C.ar    1  UNL1        0.0001
     38 C         137.8432  138.6955  166.9827 C.ar    1  UNL1        0.0000
     39 C         137.9169  137.3024  166.4314 C.ar    1  UNL1        0.0001
     40 C         138.5901  137.0515  165.1147 C.ar    1  UNL1        0.0045
@<TRIPOS>BOND
     1     6     7    2
     2     7    10    1
     3    10    11    1
     4    11    12   am
     5    12    13    2
     6    12    15    1
     7    15    16   ar
     8    16    17   ar
     9    17    18   ar
    10    18    19   ar
    11    19    21    1
    12    21    22    1
    13    21    23    1
    14    21    24    1
    15    19    20   ar
    16     7     8   am
    17     1     8    1
    18     1     2    1
    19     2     3    1
    20     3     4    1
    21     4    25    1
    22    25    26    1
    23    26    27    1
    24    27    28    1
    25    28    29    1
    26    29    30    1
    27    30    31   am
    28    31    32    2
    29    31    35    1
    30    35    36   ar
    31    36    37   ar
    32    37    38   ar
    33    38    39   ar
    34    39    40   ar
    35    30    33    1
    36    33    34    1
    37     4     5    1
    38    20    15   ar
    39     5     1    1
    40    34    27    1
    41    40    35   ar
    42    11    14    1
    43     8     9    1
@<TRIPOS>MOLECULE
*****
 40 43 0 0 0
SMALL
GASTEIGER

@<TRIPOS>ATOM
      1 C         140.3698  143.8374  159.6035 C.3     1  UNL1        0.0889
      2 C         140.6674  144.3809  158.2375 C.3     1  UNL1        0.0383
      3 C         139.6671  143.8030  157.2807 C.3     1  UNL1        0.0739
      4 N         138.7512  142.9024  158.0555 N.3     1  UNL1       -0.2700
      5 C         139.1856  142.9237  159.4910 C.3     1  UNL1        0.0919
      6 O         139.0471  145.4043  161.7933 O.2     1  UNL1       -0.2733
      7 C         140.4627  144.9359  161.9562 C.2     1  UNL1        0.2425
      8 N         141.1241  144.1524  160.8613 N.am    1  UNL1       -0.3032
      9 H         142.0532  143.8450  160.9682 H       1  UNL1        0.1495
     10 C         141.2169  145.2508  163.2139 C.3     1  UNL1        0.1759
     11 N         141.1103  144.3394  164.4006 N.am    1  UNL1       -0.2931
     12 C         141.8359  143.0266  164.4055 C.2     1  UNL1        0.2462
     13 O         142.6681  142.6252  163.2239 O.2     1  UNL1       -0.2701
     14 H         140.5641  144.6029  165.1761 H       1  UNL1        0.1502
     15 C         141.7293  142.1152  165.5922 C.ar    1  UNL1        0.0533
     16 C         142.3845  140.7662  165.5630 C.ar    1  UNL1        0.0045
     17 C         142.2779  139.8549  166.7496 C.ar    1  UNL1        0.0001
     18 C         141.5161  140.2926  167.9654 C.ar    1  UNL1        0.0039
     19 C         140.8610  141.6416  167.9946 C.ar    1  UNL1        0.0716
     20 C         140.9676  142.5529  166.8080 C.ar    1  UNL1        0.0084
     21 C         140.0993  142.0793  169.2104 C.3     1  UNL1        0.4186
     22 F         139.3375  142.5170  170.4262 F       1  UNL1       -0.1659
     23 F         140.9554  143.3074  169.3047 F       1  UNL1       -0.1659
     24 F         139.2431  140.8513  169.1161 F       1  UNL1       -0.1659
     25 C         137.6028  142.1182  157.4933 C.3     1  UNL1        0.0897
     26 C         137.5537  140.6294  157.6694 C.3     1  UNL1        0.0897
     27 N         138.1416  139.9996  158.8973 N.3     1  UNL1       -0.2686
     28 C         137.5070  140.2317  160.2364 C.3     1  UNL1        0.0939
     29 C         138.0950  139.6020  161.4644 C.3     1  UNL1        0.1110
     30 N         139.3176  138.7401  161.3530 N.am    1  UNL1       -0.2732
     31 C         139.9056  138.1104  162.5810 C.2     1  UNL1        0.2491
     32 O         141.1282  137.2485  162.4697 O.2     1  UNL1       -0.2699
     33 C         139.9523  138.5080  160.0139 C.3     1  UNL1        0.1110
     34 C         139.3643  139.1378  158.7860 C.3     1  UNL1        0.0939
     35 C         139.2709  138.3425  163.9201 C.ar    1  UNL1        0.0536
     36 C         138.8389  137.1756  164.7577 C.ar    1  UNL1        0.0045
     37 C         138.2043  137.4078  166.0969 C.ar    1  UNL1        0.0001
     38 C         138.0016  138.8068  166.5984 C.ar    1  UNL1        0.0000
     39 C         138.4336  139.9738  165.7607 C.ar    1  UNL1        0.0001
     40 C         139.0683  139.7416  164.4216 C.ar    1  UNL1        0.0045
@<TRIPOS>BOND
     1     6     7    2
     2     7    10    1
     3    10    11    1
     4    11    12   am
     5    12    13    2
     6    12    15    1
     7    15    16   ar
     8    16    17   ar
     9    17    18   ar
    10    18    19   ar
    11    19    21    1
    12    21    22    1
    13    21    23    1
    14    21    24    1
    15    19    20   ar
    16     7     8   am
    17     1     8    1
    18     1     2    1
    19     2     3    1
    20     3     4    1
    21     4    25    1
    22    25    26    1
    23    26    27    1
    24    27    28    1
    25    28    29    1
    26    29    30    1
    27    30    31   am
    28    31    32    2
    29    31    35    1
    30    35    36   ar
    31    36    37   ar
    32    37    38   ar
    33    38    39   ar
    34    39    40   ar
    35    30    33    1
    36    33    34    1
    37     4     5    1
    38    20    15   ar
    39     5     1    1
    40    34    27    1
    41    40    35   ar
    42    11    14    1
    43     8     9    1
@<TRIPOS>MOLECULE
*****
 40 43 0 0 0
SMALL
GASTEIGER

@<TRIPOS>ATOM
      1 C         141.9654  144.9440  158.6187 C.3     1  UNL1        0.0889
      2 C         141.6832  145.6475  157.3243 C.3     1  UNL1        0.0383
      3 C         142.2234  144.8015  156.2096 C.3     1  UNL1        0.0739
      4 N         142.8395  143.5752  156.8151 N.3     1  UNL1       -0.2700
      5 C         142.6800  143.6633  158.3040 C.3     1  UNL1        0.0919
      6 O         139.3899  144.0692  159.8843 O.2     1  UNL1       -0.2733
      7 C         140.3098  144.9976  160.6203 C.2     1  UNL1        0.2425
      8 N         141.5975  145.4351  159.9875 N.am    1  UNL1       -0.3032
      9 H         142.2013  146.0445  160.4706 H       1  UNL1        0.1495
     10 C         139.9420  145.4887  161.9891 C.3     1  UNL1        0.1759
     11 N         140.1768  144.6168  163.1869 N.am    1  UNL1       -0.2931
     12 C         139.1541  143.5928  163.5812 C.2     1  UNL1        0.2462
     13 O         137.8965  143.4408  162.7778 O.2     1  UNL1       -0.2701
     14 H         141.0021  144.7166  163.7142 H       1  UNL1        0.1502
     15 C         139.3888  142.7209  164.7791 C.ar    1  UNL1        0.0533
     16 C         140.2273  143.2209  165.9179 C.ar    1  UNL1        0.0045
     17 C         140.4621  142.3490  167.1156 C.ar    1  UNL1        0.0001
     18 C         139.8583  140.9771  167.1745 C.ar    1  UNL1        0.0039
     19 C         139.0199  140.4771  166.0357 C.ar    1  UNL1        0.0716
     20 C         138.7851  141.3490  164.8380 C.ar    1  UNL1        0.0084
     21 C         138.4161  139.1053  166.0946 C.3     1  UNL1        0.4186
     22 F         137.8124  137.7334  166.1536 F       1  UNL1       -0.1659
     23 F         138.4966  139.1342  167.5922 F       1  UNL1       -0.1659
     24 F         138.3357  139.0763  164.5971 F       1  UNL1       -0.1659
     25 C         143.4992  142.4572  156.0637 C.3     1  UNL1        0.0897
     26 C         143.9561  141.2295  156.7944 C.3     1  UNL1        0.0897
     27 N         143.0782  140.6090  157.8405 N.3     1  UNL1       -0.2686
     28 C         143.5794  140.4563  159.2460 C.3     1  UNL1        0.0939
     29 C         142.7014  139.8358  160.2921 C.3     1  UNL1        0.1110
     30 N         141.3222  139.3682  159.9325 N.am    1  UNL1       -0.2732
     31 C         140.4442  138.7477  160.9787 C.2     1  UNL1        0.2491
     32 O         139.0650  138.2801  160.6192 O.2     1  UNL1       -0.2699
     33 C         140.8210  139.5210  158.5270 C.3     1  UNL1        0.1110
     34 C         141.6990  140.1414  157.4810 C.3     1  UNL1        0.0939
     35 C         140.9454  138.5950  162.3842 C.ar    1  UNL1        0.0536
     36 C         141.5985  139.7536  163.0776 C.ar    1  UNL1        0.0045
     37 C         142.0997  139.6008  164.4831 C.ar    1  UNL1        0.0001
     38 C         141.9478  138.2894  165.1951 C.ar    1  UNL1        0.0000
     39 C         141.2946  137.1307  164.5016 C.ar    1  UNL1        0.0001
     40 C         140.7934  137.2835  163.0961 C.ar    1  UNL1        0.0045
@<TRIPOS>BOND
     1     6     7    2
     2     7    10    1
     3    10    11    1
     4    11    12   am
     5    12    13    2
     6    12    15    1
     7    15    16   ar
     8    16    17   ar
     9    17    18   ar
    10    18    19   ar
    11    19    21    1
    12    21    22    1
    13    21    23    1
    14    21    24    1
    15    19    20   ar
    16     7     8   am
    17     1     8    1
    18     1     2    1
    19     2     3    1
    20     3     4    1
    21     4    25    1
    22    25    26    1
    23    26    27    1
    24    27    28    1
    25    28    29    1
    26    29    30    1
    27    30    31   am
    28    31    32    2
    29    31    35    1
    30    35    36   ar
    31    36    37   ar
    32    37    38   ar
    33    38    39   ar
    34    39    40   ar
    35    30    33    1
    36    33    34    1
    37     4     5    1
    38    20    15   ar
    39     5     1    1
    40    34    27    1
    41    40    35   ar
    42    11    14    1
    43     8     9    1
@<TRIPOS>MOLECULE
*****
 40 43 0 0 0
SMALL
GASTEIGER

@<TRIPOS>ATOM
      1 C         143.7098  140.5424  158.2389 C.3     1  UNL1        0.0889
      2 C         144.2355  140.4563  156.8367 C.3     1  UNL1        0.0383
      3 C         143.8175  141.6989  156.1078 C.3     1  UNL1        0.0739
      4 N         143.0334  142.5530  157.0596 N.3     1  UNL1       -0.2700
      5 C         142.9669  141.8382  158.3767 C.3     1  UNL1        0.0919
      6 O         141.6478  138.3997  158.6352 O.2     1  UNL1       -0.2733
      7 C         142.8636  138.4420  159.5127 C.2     1  UNL1        0.2425
      8 N         143.8946  139.5134  159.3146 N.am    1  UNL1       -0.3032
      9 H         144.6926  139.5412  159.8906 H       1  UNL1        0.1495
     10 C         143.0484  137.4131  160.5883 C.3     1  UNL1        0.1759
     11 N         142.4943  137.6552  161.9611 N.am    1  UNL1       -0.2931
     12 C         143.1162  138.6919  162.8489 C.2     1  UNL1        0.2462
     13 O         144.2924  139.4866  162.3640 O.2     1  UNL1       -0.2701
     14 H         141.7223  137.1336  162.2793 H       1  UNL1        0.1502
     15 C         142.5621  138.9340  164.2216 C.ar    1  UNL1        0.0533
     16 C         143.4886  139.2357  165.3620 C.ar    1  UNL1        0.0045
     17 C         142.9344  139.4777  166.7347 C.ar    1  UNL1        0.0001
     18 C         141.4536  139.4182  166.9669 C.ar    1  UNL1        0.0039
     19 C         140.5271  139.1165  165.8265 C.ar    1  UNL1        0.0716
     20 C         141.0813  138.8744  164.4539 C.ar    1  UNL1        0.0084
     21 C         139.0464  139.0569  166.0588 C.3     1  UNL1        0.4186
     22 F         137.5657  138.9974  166.2910 F       1  UNL1       -0.1659
     23 F         138.9294  137.9682  165.0337 F       1  UNL1       -0.1659
     24 F         139.1634  140.1457  167.0839 F       1  UNL1       -0.1659
     25 C         142.4231  143.8875  156.7489 C.3     1  UNL1        0.0897
     26 C         140.9498  144.0997  156.9339 C.3     1  UNL1        0.0897
     27 N         140.2818  143.6574  158.2020 N.3     1  UNL1       -0.2686
     28 C         140.7120  144.2357  159.5175 C.3     1  UNL1        0.0939
     29 C         140.0440  143.7933  160.7856 C.3     1  UNL1        0.1110
     30 N         138.9458  142.7726  160.7382 N.am    1  UNL1       -0.2732
     31 C         138.2778  142.3303  162.0064 C.2     1  UNL1        0.2491
     32 O         137.1796  141.3096  161.9590 O.2     1  UNL1       -0.2699
     33 C         138.5156  142.1943  159.4227 C.3     1  UNL1        0.1110
     34 C         139.1836  142.6367  158.1546 C.3     1  UNL1        0.0939
     35 C         138.7080  142.9086  163.3218 C.ar    1  UNL1        0.0536
     36 C         138.0282  144.1318  163.8616 C.ar    1  UNL1        0.0045
     37 C         138.4584  144.7101  165.1771 C.ar    1  UNL1        0.0001
     38 C         139.5685  144.0651  165.9527 C.ar    1  UNL1        0.0000
     39 C         140.2484  142.8419  165.4129 C.ar    1  UNL1        0.0001
     40 C         139.8182  142.2636  164.0974 C.ar    1  UNL1        0.0045
@<TRIPOS>BOND
     1     6     7    2
     2     7    10    1
     3    10    11    1
     4    11    12   am
     5    12    13    2
     6    12    15    1
     7    15    16   ar
     8    16    17   ar
     9    17    18   ar
    10    18    19   ar
    11    19    21    1
    12    21    22    1
    13    21    23    1
    14    21    24    1
    15    19    20   ar
    16     7     8   am
    17     1     8    1
    18     1     2    1
    19     2     3    1
    20     3     4    1
    21     4    25    1
    22    25    26    1
    23    26    27    1
    24    27    28    1
    25    28    29    1
    26    29    30    1
    27    30    31   am
    28    31    32    2
    29    31    35    1
    30    35    36   ar
    31    36    37   ar
    32    37    38   ar
    33    38    39   ar
    34    39    40   ar
    35    30    33    1
    36    33    34    1
    37     4     5    1
    38    20    15   ar
    39     5     1    1
    40    34    27    1
    41    40    35   ar
    42    11    14    1
    43     8     9    1
@<TRIPOS>MOLECULE
*****
 40 43 0 0 0
SMALL
GASTEIGER

@<TRIPOS>ATOM
      1 C         139.0514  140.2666  158.1349 C.3     1  UNL1        0.0889
      2 C         139.1076  140.9101  156.7811 C.3     1  UNL1        0.0383
      3 C         140.0226  140.0936  155.9174 C.3     1  UNL1        0.0739
      4 N         140.5321  138.9455  156.7374 N.3     1  UNL1       -0.2700
      5 C         139.9318  139.0524  158.1079 C.3     1  UNL1        0.0919
      6 O         140.1195  142.4746  159.8623 O.2     1  UNL1       -0.2733
      7 C         138.7888  141.8561  160.1732 C.2     1  UNL1        0.2425
      8 N         138.2548  140.7521  159.3095 N.am    1  UNL1       -0.3032
      9 H         137.3814  140.3462  159.5135 H       1  UNL1        0.1495
     10 C         137.9921  142.3415  161.3478 C.3     1  UNL1        0.1759
     11 N         138.0870  141.6290  162.6644 N.am    1  UNL1       -0.2931
     12 C         139.1060  142.0584  163.6779 C.2     1  UNL1        0.2462
     13 O         140.0302  143.2003  163.3748 O.2     1  UNL1       -0.2701
     14 H         137.4804  140.8795  162.8633 H       1  UNL1        0.1502
     15 C         139.2008  141.3459  164.9945 C.ar    1  UNL1        0.0533
     16 C         139.9759  141.9571  166.1239 C.ar    1  UNL1        0.0045
     17 C         140.0707  141.2446  167.4404 C.ar    1  UNL1        0.0001
     18 C         139.3904  139.9209  167.6275 C.ar    1  UNL1        0.0039
     19 C         138.6153  139.3097  166.4981 C.ar    1  UNL1        0.0716
     20 C         138.5205  140.0222  165.1816 C.ar    1  UNL1        0.0084
     21 C         137.9350  137.9860  166.6852 C.3     1  UNL1        0.4186
     22 F         137.2547  136.6623  166.8723 F       1  UNL1       -0.1659
     23 F         138.7189  137.4209  165.5380 F       1  UNL1       -0.1659
     24 F         137.1510  138.5510  167.8325 F       1  UNL1       -0.1659
     25 C         141.4760  137.8779  156.2691 C.3     1  UNL1        0.0897
     26 C         142.8087  137.7097  156.9367 C.3     1  UNL1        0.0897
     27 N         143.0973  138.4216  158.2251 N.3     1  UNL1       -0.2686
     28 C         142.8682  137.7257  159.5340 C.3     1  UNL1        0.0939
     29 C         143.1568  138.4376  160.8225 C.3     1  UNL1        0.1110
     30 N         143.6745  139.8453  160.8018 N.am    1  UNL1       -0.2732
     31 C         143.9631  140.5572  162.0903 C.2     1  UNL1        0.2491
     32 O         144.4808  141.9649  162.0697 O.2     1  UNL1       -0.2699
     33 C         143.9036  140.5411  159.4929 C.3     1  UNL1        0.1110
     34 C         143.6150  139.8292  158.2045 C.3     1  UNL1        0.0939
     35 C         143.7340  139.8614  163.3992 C.ar    1  UNL1        0.0536
     36 C         142.3360  139.6318  163.8919 C.ar    1  UNL1        0.0045
     37 C         142.1069  138.9360  165.2009 C.ar    1  UNL1        0.0001
     38 C         143.2759  138.4698  166.0170 C.ar    1  UNL1        0.0000
     39 C         144.6739  138.6993  165.5243 C.ar    1  UNL1        0.0001
     40 C         144.9030  139.3951  164.2153 C.ar    1  UNL1        0.0045
@<TRIPOS>BOND
     1     6     7    2
     2     7    10    1
     3    10    11    1
     4    11    12   am
     5    12    13    2
     6    12    15    1
     7    15    16   ar
     8    16    17   ar
     9    17    18   ar
    10    18    19   ar
    11    19    21    1
    12    21    22    1
    13    21    23    1
    14    21    24    1
    15    19    20   ar
    16     7     8   am
    17     1     8    1
    18     1     2    1
    19     2     3    1
    20     3     4    1
    21     4    25    1
    22    25    26    1
    23    26    27    1
    24    27    28    1
    25    28    29    1
    26    29    30    1
    27    30    31   am
    28    31    32    2
    29    31    35    1
    30    35    36   ar
    31    36    37   ar
    32    37    38   ar
    33    38    39   ar
    34    39    40   ar
    35    30    33    1
    36    33    34    1
    37     4     5    1
    38    20    15   ar
    39     5     1    1
    40    34    27    1
    41    40    35   ar
    42    11    14    1
    43     8     9    1
@<TRIPOS>MOLECULE
*****
 40 43 0 0 0
SMALL
GASTEIGER

@<TRIPOS>ATOM
      1 C         138.9842  140.1680  158.7675 C.3     1  UNL1        0.0889
      2 C         137.8650  140.7702  157.9708 C.3     1  UNL1        0.0383
      3 C         138.4675  141.6620  156.9259 C.3     1  UNL1        0.0739
      4 N         139.9590  141.6109  157.0768 N.3     1  UNL1       -0.2700
      5 C         140.2784  140.6876  158.2150 C.3     1  UNL1        0.0919
      6 O         137.8296  141.1182  161.3683 O.2     1  UNL1       -0.2733
      7 C         138.2582  139.6889  161.2156 C.2     1  UNL1        0.2425
      8 N         138.8354  139.2138  159.9153 N.am    1  UNL1       -0.3032
      9 H         139.1167  138.2756  159.8151 H       1  UNL1        0.1495
     10 C         138.1094  138.7346  162.3633 C.3     1  UNL1        0.1759
     11 N         138.7280  139.0565  163.6914 N.am    1  UNL1       -0.2931
     12 C         140.1604  138.6998  163.9578 C.2     1  UNL1        0.2462
     13 O         140.9742  138.0212  162.8961 O.2     1  UNL1       -0.2701
     14 H         138.1939  139.5019  164.3882 H       1  UNL1        0.1502
     15 C         140.7791  139.0217  165.2858 C.ar    1  UNL1        0.0533
     16 C         142.2478  138.8063  165.5010 C.ar    1  UNL1        0.0045
     17 C         142.8664  139.1282  166.8290 C.ar    1  UNL1        0.0001
     18 C         142.0162  139.6655  167.9419 C.ar    1  UNL1        0.0039
     19 C         140.5474  139.8809  167.7267 C.ar    1  UNL1        0.0716
     20 C         139.9289  139.5590  166.3987 C.ar    1  UNL1        0.0084
     21 C         139.6973  140.4183  168.8396 C.3     1  UNL1        0.4186
     22 F         138.8471  140.9556  169.9525 F       1  UNL1       -0.1659
     23 F         138.5587  139.5524  168.3879 F       1  UNL1       -0.1659
     24 F         140.8358  141.2841  169.2914 F       1  UNL1       -0.1659
     25 C         140.9561  142.3529  156.2370 C.3     1  UNL1        0.0897
     26 C         141.7287  143.4963  156.8249 C.3     1  UNL1        0.0897
     27 N         141.5656  143.8449  158.2747 N.3     1  UNL1       -0.2686
     28 C         142.4462  143.2015  159.3045 C.3     1  UNL1        0.0939
     29 C         142.2830  143.5501  160.7543 C.3     1  UNL1        0.1110
     30 N         141.2392  144.5421  161.1742 N.am    1  UNL1       -0.2732
     31 C         141.0760  144.8908  162.6240 C.2     1  UNL1        0.2491
     32 O         140.0322  145.8828  163.0440 O.2     1  UNL1       -0.2699
     33 C         140.3586  145.1856  160.1444 C.3     1  UNL1        0.1110
     34 C         140.5217  144.8369  158.6946 C.3     1  UNL1        0.0939
     35 C         141.9566  144.2474  163.6538 C.ar    1  UNL1        0.0536
     36 C         141.4484  143.0857  164.4551 C.ar    1  UNL1        0.0045
     37 C         142.3290  142.4423  165.4849 C.ar    1  UNL1        0.0001
     38 C         143.7179  142.9606  165.7134 C.ar    1  UNL1        0.0000
     39 C         144.2262  144.1223  164.9121 C.ar    1  UNL1        0.0001
     40 C         143.3456  144.7658  163.8823 C.ar    1  UNL1        0.0045
@<TRIPOS>BOND
     1     6     7    2
     2     7    10    1
     3    10    11    1
     4    11    12   am
     5    12    13    2
     6    12    15    1
     7    15    16   ar
     8    16    17   ar
     9    17    18   ar
    10    18    19   ar
    11    19    21    1
    12    21    22    1
    13    21    23    1
    14    21    24    1
    15    19    20   ar
    16     7     8   am
    17     1     8    1
    18     1     2    1
    19     2     3    1
    20     3     4    1
    21     4    25    1
    22    25    26    1
    23    26    27    1
    24    27    28    1
    25    28    29    1
    26    29    30    1
    27    30    31   am
    28    31    32    2
    29    31    35    1
    30    35    36   ar
    31    36    37   ar
    32    37    38   ar
    33    38    39   ar
    34    39    40   ar
    35    30    33    1
    36    33    34    1
    37     4     5    1
    38    20    15   ar
    39     5     1    1
    40    34    27    1
    41    40    35   ar
    42    11    14    1
    43     8     9    1
@<TRIPOS>MOLECULE
*****
 40 43 0 0 0
SMALL
GASTEIGER

@<TRIPOS>ATOM
      1 C         139.8647  143.3781  159.0104 C.3     1  UNL1        0.0889
      2 C         139.2105  143.6662  157.6917 C.3     1  UNL1        0.0383
      3 C         139.9068  142.8529  156.6413 C.3     1  UNL1        0.0739
      4 N         140.9915  142.0620  157.3108 N.3     1  UNL1       -0.2700
      5 C         140.9654  142.3867  158.7750 C.3     1  UNL1        0.0919
      6 O         141.6433  145.4221  160.2984 O.2     1  UNL1       -0.2733
      7 C         140.3742  144.9984  160.9765 C.2     1  UNL1        0.2425
      8 N         139.4849  143.9764  160.3325 N.am    1  UNL1       -0.3032
      9 H         138.6519  143.6984  160.7776 H       1  UNL1        0.1495
     10 C         139.9944  145.5966  162.2985 C.3     1  UNL1        0.1759
     11 N         140.6531  145.1143  163.5570 N.am    1  UNL1       -0.2931
     12 C         140.3956  143.7221  164.0522 C.2     1  UNL1        0.2462
     13 O         139.4795  142.8120  163.2890 O.2     1  UNL1       -0.2701
     14 H         141.2544  145.7117  164.0579 H       1  UNL1        0.1502
     15 C         141.0543  143.2398  165.3106 C.ar    1  UNL1        0.0533
     16 C         142.4995  142.8383  165.2943 C.ar    1  UNL1        0.0045
     17 C         143.1581  142.3561  166.5527 C.ar    1  UNL1        0.0001
     18 C         142.3716  142.2754  167.8274 C.ar    1  UNL1        0.0039
     19 C         140.9264  142.6769  167.8437 C.ar    1  UNL1        0.0716
     20 C         140.2678  143.1591  166.5853 C.ar    1  UNL1        0.0084
     21 C         140.1399  142.5962  169.1184 C.3     1  UNL1        0.4186
     22 F         139.3534  142.5155  170.3931 F       1  UNL1       -0.1659
     23 F         140.2715  144.0801  169.2936 F       1  UNL1       -0.1659
     24 F         140.0083  141.1123  168.9433 F       1  UNL1       -0.1659
     25 C         141.9363  141.1132  156.6347 C.3     1  UNL1        0.0897
     26 C         142.1038  139.7189  157.1618 C.3     1  UNL1        0.0897
     27 N         141.4954  139.3367  158.4785 N.3     1  UNL1       -0.2686
     28 C         142.2481  139.5836  159.7523 C.3     1  UNL1        0.0939
     29 C         141.6397  139.2014  161.0691 C.3     1  UNL1        0.1110
     30 N         140.2787  138.5724  161.1119 N.am    1  UNL1       -0.2732
     31 C         139.6703  138.1902  162.4288 C.2     1  UNL1        0.2491
     32 O         138.3092  137.5612  162.4717 O.2     1  UNL1       -0.2699
     33 C         139.5260  138.3255  159.8382 C.3     1  UNL1        0.1110
     34 C         140.1344  138.7077  158.5214 C.3     1  UNL1        0.0939
     35 C         140.4230  138.4371  163.7025 C.ar    1  UNL1        0.0536
     36 C         141.7442  137.7662  163.9350 C.ar    1  UNL1        0.0045
     37 C         142.4969  138.0131  165.2087 C.ar    1  UNL1        0.0001
     38 C         141.9283  138.9308  166.2501 C.ar    1  UNL1        0.0000
     39 C         140.6069  139.6017  166.0176 C.ar    1  UNL1        0.0001
     40 C         139.8542  139.3549  164.7438 C.ar    1  UNL1        0.0045
@<TRIPOS>BOND
     1     6     7    2
     2     7    10    1
     3    10    11    1
     4    11    12   am
     5    12    13    2
     6    12    15    1
     7    15    16   ar
     8    16    17   ar
     9    17    18   ar
    10    18    19   ar
    11    19    21    1
    12    21    22    1
    13    21    23    1
    14    21    24    1
    15    19    20   ar
    16     7     8   am
    17     1     8    1
    18     1     2    1
    19     2     3    1
    20     3     4    1
    21     4    25    1
    22    25    26    1
    23    26    27    1
    24    27    28    1
    25    28    29    1
    26    29    30    1
    27    30    31   am
    28    31    32    2
    29    31    35    1
    30    35    36   ar
    31    36    37   ar
    32    37    38   ar
    33    38    39   ar
    34    39    40   ar
    35    30    33    1
    36    33    34    1
    37     4     5    1
    38    20    15   ar
    39     5     1    1
    40    34    27    1
    41    40    35   ar
    42    11    14    1
    43     8     9    1
@<TRIPOS>MOLECULE
*****
 40 43 0 0 0
SMALL
GASTEIGER

@<TRIPOS>ATOM
      1 C         143.7142  140.3817  158.4505 C.3     1  UNL1        0.0889
      2 C         144.5268  140.3357  157.1906 C.3     1  UNL1        0.0383
      3 C         143.8356  141.1811  156.1621 C.3     1  UNL1        0.0739
      4 N         142.5958  141.7496  156.7865 N.3     1  UNL1       -0.2700
      5 C         142.5208  141.2555  158.2008 C.3     1  UNL1        0.0919
      6 O         141.8248  138.3291  159.5537 O.2     1  UNL1       -0.2733
      7 C         143.0934  138.6513  160.2864 C.2     1  UNL1        0.2425
      8 N         144.0381  139.6775  159.7348 N.am    1  UNL1       -0.3032
      9 H         144.8707  139.8890  160.2157 H       1  UNL1        0.1495
     10 C         143.4173  137.9472  161.5706 C.3     1  UNL1        0.1759
     11 N         142.8886  138.4771  162.8705 N.am    1  UNL1       -0.2931
     12 C         141.5164  138.0894  163.3359 C.2     1  UNL1        0.2462
     13 O         140.6728  137.1719  162.5014 O.2     1  UNL1       -0.2701
     14 H         143.4423  139.0793  163.4182 H       1  UNL1        0.1502
     15 C         140.9877  138.6194  164.6359 C.ar    1  UNL1        0.0533
     16 C         139.5127  138.6041  164.9076 C.ar    1  UNL1        0.0045
     17 C         138.9841  139.1340  166.2075 C.ar    1  UNL1        0.0001
     18 C         139.9305  139.6792  167.2356 C.ar    1  UNL1        0.0039
     19 C         141.4056  139.6944  166.9639 C.ar    1  UNL1        0.0716
     20 C         141.9342  139.1645  165.6640 C.ar    1  UNL1        0.0084
     21 C         142.3521  140.2395  167.9920 C.3     1  UNL1        0.4186
     22 F         143.2985  140.7847  169.0201 F       1  UNL1       -0.1659
     23 F         143.0323  141.0556  166.9330 F       1  UNL1       -0.1659
     24 F         141.6719  139.4235  169.0509 F       1  UNL1       -0.1659
     25 C         141.6051  142.6534  156.1146 C.3     1  UNL1        0.0897
     26 C         140.8823  143.6984  156.9118 C.3     1  UNL1        0.0897
     27 N         140.2140  143.3280  158.2026 N.3     1  UNL1       -0.2686
     28 C         140.6640  143.9572  159.4876 C.3     1  UNL1        0.0939
     29 C         139.9957  143.5868  160.7785 C.3     1  UNL1        0.1110
     30 N         138.8774  142.5872  160.7841 N.am    1  UNL1       -0.2732
     31 C         138.2091  142.2167  162.0750 C.2     1  UNL1        0.2491
     32 O         137.0907  141.2171  162.0807 O.2     1  UNL1       -0.2699
     33 C         138.4273  141.9579  159.4990 C.3     1  UNL1        0.1110
     34 C         139.0956  142.3283  158.2082 C.3     1  UNL1        0.0939
     35 C         138.6591  142.8460  163.3601 C.ar    1  UNL1        0.0536
     36 C         139.7920  142.2410  164.1350 C.ar    1  UNL1        0.0045
     37 C         140.2420  142.8703  165.4201 C.ar    1  UNL1        0.0001
     38 C         139.5592  144.1045  165.9302 C.ar    1  UNL1        0.0000
     39 C         138.4262  144.7095  165.1553 C.ar    1  UNL1        0.0001
     40 C         137.9762  144.0803  163.8702 C.ar    1  UNL1        0.0045
@<TRIPOS>BOND
     1     6     7    2
     2     7    10    1
     3    10    11    1
     4    11    12   am
     5    12    13    2
     6    12    15    1
     7    15    16   ar
     8    16    17   ar
     9    17    18   ar
    10    18    19   ar
    11    19    21    1
    12    21    22    1
    13    21    23    1
    14    21    24    1
    15    19    20   ar
    16     7     8   am
    17     1     8    1
    18     1     2    1
    19     2     3    1
    20     3     4    1
    21     4    25    1
    22    25    26    1
    23    26    27    1
    24    27    28    1
    25    28    29    1
    26    29    30    1
    27    30    31   am
    28    31    32    2
    29    31    35    1
    30    35    36   ar
    31    36    37   ar
    32    37    38   ar
    33    38    39   ar
    34    39    40   ar
    35    30    33    1
    36    33    34    1
    37     4     5    1
    38    20    15   ar
    39     5     1    1
    40    34    27    1
    41    40    35   ar
    42    11    14    1
    43     8     9    1
