@<TRIPOS>MOLECULE
*****
 32 35 0 0 0
SMALL
GASTEIGER

@<TRIPOS>ATOM
      1 N         144.2159  139.2285  163.6294 N.3     1  UNL1       -0.2863
      2 H         143.9261  138.2547  163.5395 H       1  UNL1        0.1240
      3 C         142.4186  139.8201  168.5590 C.2     1  UNL1        0.2559
      4 O         142.9938  138.6177  169.2470 O.2     1  UNL1       -0.2695
      5 N         142.6890  140.0512  167.1018 N.am    1  UNL1       -0.2252
      6 C         142.1843  141.2023  166.2831 C.3     1  UNL1        0.1031
      7 C         142.6949  141.0343  164.8827 C.3     1  UNL1        0.0471
      8 C         143.5151  139.7793  164.8358 C.3     1  UNL1        0.1341
      9 C         143.5114  139.1717  166.2073 C.2     1  UNL1        0.2459
     10 O         144.2080  137.9067  166.6130 O.2     1  UNL1       -0.2730
     11 C         143.6695  142.2581  169.7804 C.3     1  UNL1        0.0522
     12 C         142.1986  142.0105  169.9389 C.ar    1  UNL1        0.0637
     13 N         141.3531  142.9818  170.7081 N.ar    1  UNL1       -0.2480
     14 C         139.8822  142.7341  170.8666 C.ar    1  UNL1        0.0985
     15 C         139.2568  141.5152  170.2559 C.ar    1  UNL1        0.0208
     16 C         140.1023  140.5438  169.4867 C.ar    1  UNL1        0.0073
     17 C         141.5732  140.7914  169.3282 C.ar    1  UNL1        0.0675
     18 C         144.0121  139.8666  162.2872 C.3     1  UNL1        0.1151
     19 C         143.1157  139.2159  161.2758 C.ar    1  UNL1        0.0739
     20 C         143.5326  138.2042  160.2497 C.ar    1  UNL1        0.1147
     21 N         142.3195  137.8257  159.4525 N.ar    1  UNL1       -0.2226
     22 C         141.1531  138.6034  159.9860 C.ar    1  UNL1        0.1786
     23 N         141.6451  139.4625  161.1128 N.ar    1  UNL1       -0.3070
     24 C         140.8128  140.4032  161.9327 C.3     1  UNL1        0.1340
     25 C         140.0400  139.8885  163.1108 C.ar    1  UNL1        0.0005
     26 C         140.2234  138.4713  163.5668 C.ar    1  UNL1       -0.0017
     27 C         139.4506  137.9566  164.7449 C.ar    1  UNL1        0.0100
     28 C         138.4945  138.8590  165.4670 C.ar    1  UNL1        0.0684
     29 C         138.3111  140.2762  165.0109 C.ar    1  UNL1        0.0100
     30 C         139.0839  140.7909  163.8328 C.ar    1  UNL1       -0.0017
     31 C         137.7217  138.3442  166.6451 C.1     1  UNL1        0.1004
     32 N         136.9489  137.8295  167.8231 N.1     1  UNL1       -0.1908
@<TRIPOS>BOND
     1    11    12    1
     2    12    13   ar
     3    13    14   ar
     4    14    15   ar
     5    15    16   ar
     6    16    17   ar
     7    17     3    1
     8     3     4    2
     9     3     5   am
    10     5     6    1
    11     6     7    1
    12     7     8    1
    13     8     1    1
    14     1    18    1
    15    18    19    1
    16    19    20   ar
    17    20    21   ar
    18    21    22   ar
    19    22    23   ar
    20    23    24    1
    21    24    25    1
    22    25    26   ar
    23    26    27   ar
    24    27    28   ar
    25    28    31    1
    26    31    32    3
    27    28    29   ar
    28    29    30   ar
    29     8     9    1
    30     9    10    2
    31    17    12   ar
    32     9     5   am
    33    23    19   ar
    34    30    25   ar
    35     1     2    1
@<TRIPOS>MOLECULE
*****
 32 35 0 0 0
SMALL
GASTEIGER

@<TRIPOS>ATOM
      1 N         144.5192  139.2164  163.1977 N.3     1  UNL1       -0.2863
      2 H         144.4432  138.2187  162.9996 H       1  UNL1        0.1240
      3 C         141.8585  141.5744  167.1017 C.2     1  UNL1        0.2559
      4 O         141.6998  142.9692  166.5729 O.2     1  UNL1       -0.2695
      5 N         142.5779  140.5407  166.2869 N.am    1  UNL1       -0.2252
      6 C         142.8131  139.1131  166.6825 C.3     1  UNL1        0.1031
      7 C         143.5689  138.4432  165.5734 C.3     1  UNL1        0.0471
      8 C         143.8009  139.4568  164.4924 C.3     1  UNL1        0.1341
      9 C         143.1884  140.7532  164.9333 C.2     1  UNL1        0.2459
     10 O         143.1868  142.0366  164.1569 O.2     1  UNL1       -0.2730
     11 C         143.4942  142.0166  169.5774 C.3     1  UNL1        0.0522
     12 C         142.1158  141.4346  169.6833 C.ar    1  UNL1        0.0637
     13 N         141.5552  141.0736  171.0269 N.ar    1  UNL1       -0.2480
     14 C         140.1768  140.4915  171.1327 C.ar    1  UNL1        0.0985
     15 C         139.3590  140.2704  169.8949 C.ar    1  UNL1        0.0208
     16 C         139.9196  140.6314  168.5512 C.ar    1  UNL1        0.0073
     17 C         141.2980  141.2135  168.4453 C.ar    1  UNL1        0.0675
     18 C         144.0884  139.9385  161.9556 C.3     1  UNL1        0.1151
     19 C         143.0328  139.3446  161.0707 C.ar    1  UNL1        0.0739
     20 C         143.2616  138.3526  159.9690 C.ar    1  UNL1        0.1147
     21 N         141.9332  138.0333  159.3496 N.ar    1  UNL1       -0.2226
     22 C         140.8836  138.8279  160.0685 C.ar    1  UNL1        0.1786
     23 N         141.5631  139.6384  161.1322 N.ar    1  UNL1       -0.3070
     24 C         140.8911  140.5776  162.0893 C.3     1  UNL1        0.1340
     25 C         140.0972  140.0344  163.2402 C.ar    1  UNL1        0.0005
     26 C         140.1920  138.5805  163.5969 C.ar    1  UNL1       -0.0017
     27 C         139.3981  138.0373  164.7479 C.ar    1  UNL1        0.0100
     28 C         138.5094  138.9480  165.5422 C.ar    1  UNL1        0.0684
     29 C         138.4146  140.4018  165.1855 C.ar    1  UNL1        0.0100
     30 C         139.2085  140.9451  164.0345 C.ar    1  UNL1       -0.0017
     31 C         137.7155  138.4047  166.6931 C.1     1  UNL1        0.1004
     32 N         136.9216  137.8615  167.8441 N.1     1  UNL1       -0.1908
@<TRIPOS>BOND
     1    11    12    1
     2    12    13   ar
     3    13    14   ar
     4    14    15   ar
     5    15    16   ar
     6    16    17   ar
     7    17     3    1
     8     3     4    2
     9     3     5   am
    10     5     6    1
    11     6     7    1
    12     7     8    1
    13     8     1    1
    14     1    18    1
    15    18    19    1
    16    19    20   ar
    17    20    21   ar
    18    21    22   ar
    19    22    23   ar
    20    23    24    1
    21    24    25    1
    22    25    26   ar
    23    26    27   ar
    24    27    28   ar
    25    28    31    1
    26    31    32    3
    27    28    29   ar
    28    29    30   ar
    29     8     9    1
    30     9    10    2
    31    17    12   ar
    32     9     5   am
    33    23    19   ar
    34    30    25   ar
    35     1     2    1
@<TRIPOS>MOLECULE
*****
 32 35 0 0 0
SMALL
GASTEIGER

@<TRIPOS>ATOM
      1 N         141.3595  143.7731  162.3664 N.3     1  UNL1       -0.2863
      2 H         141.9924  144.5669  162.4655 H       1  UNL1        0.1240
      3 C         142.1729  142.3154  167.3759 C.2     1  UNL1        0.2559
      4 O         143.5910  142.7499  167.6007 O.2     1  UNL1       -0.2695
      5 N         141.5204  142.5448  166.0449 N.am    1  UNL1       -0.2252
      6 C         140.1170  142.1667  165.6741 C.3     1  UNL1        0.1031
      7 C         139.8859  142.5807  164.2510 C.3     1  UNL1        0.0471
      8 C         141.1465  143.2148  163.7423 C.3     1  UNL1        0.1341
      9 C         142.1566  143.1926  164.8509 C.2     1  UNL1        0.2459
     10 O         143.5572  143.7248  164.7783 O.2     1  UNL1       -0.2730
     11 C         142.6595  139.4242  168.0116 C.3     1  UNL1        0.0522
     12 C         141.6508  140.2060  168.7999 C.ar    1  UNL1        0.0637
     13 N         140.8854  139.5422  169.9059 N.ar    1  UNL1       -0.2480
     14 C         139.8767  140.3240  170.6942 C.ar    1  UNL1        0.0985
     15 C         139.6334  141.7695  170.3764 C.ar    1  UNL1        0.0208
     16 C         140.3988  142.4334  169.2702 C.ar    1  UNL1        0.0073
     17 C         141.4075  141.6516  168.4820 C.ar    1  UNL1        0.0675
     18 C         141.9232  142.9025  161.2827 C.3     1  UNL1        0.1151
     19 C         143.0361  141.9456  161.5922 C.ar    1  UNL1        0.0739
     20 C         144.4651  142.3130  161.8625 C.ar    1  UNL1        0.1147
     21 N         145.2276  141.0477  162.1231 N.ar    1  UNL1       -0.2226
     22 C         144.2699  139.8985  162.0139 C.ar    1  UNL1        0.1786
     23 N         142.9154  140.4534  161.6858 N.ar    1  UNL1       -0.3070
     24 C         141.6607  139.6562  161.4863 C.3     1  UNL1        0.1340
     25 C         140.7786  139.3403  162.6577 C.ar    1  UNL1        0.0005
     26 C         141.3876  138.9385  163.9683 C.ar    1  UNL1       -0.0017
     27 C         140.5056  138.6226  165.1398 C.ar    1  UNL1        0.0100
     28 C         139.0145  138.7085  165.0006 C.ar    1  UNL1        0.0684
     29 C         138.4055  139.1102  163.6900 C.ar    1  UNL1        0.0100
     30 C         139.2876  139.4261  162.5185 C.ar    1  UNL1       -0.0017
     31 C         138.1325  138.3926  166.1720 C.1     1  UNL1        0.1004
     32 N         137.2504  138.0767  167.3435 N.1     1  UNL1       -0.1908
@<TRIPOS>BOND
     1    11    12    1
     2    12    13   ar
     3    13    14   ar
     4    14    15   ar
     5    15    16   ar
     6    16    17   ar
     7    17     3    1
     8     3     4    2
     9     3     5   am
    10     5     6    1
    11     6     7    1
    12     7     8    1
    13     8     1    1
    14     1    18    1
    15    18    19    1
    16    19    20   ar
    17    20    21   ar
    18    21    22   ar
    19    22    23   ar
    20    23    24    1
    21    24    25    1
    22    25    26   ar
    23    26    27   ar
    24    27    28   ar
    25    28    31    1
    26    31    32    3
    27    28    29   ar
    28    29    30   ar
    29     8     9    1
    30     9    10    2
    31    17    12   ar
    32     9     5   am
    33    23    19   ar
    34    30    25   ar
    35     1     2    1
@<TRIPOS>MOLECULE
*****
 32 35 0 0 0
SMALL
GASTEIGER

@<TRIPOS>ATOM
      1 N         142.7258  143.1687  161.9588 N.3     1  UNL1       -0.2863
      2 H         143.7366  143.0412  161.9103 H       1  UNL1        0.1240
      3 C         142.2590  140.6759  166.5901 C.2     1  UNL1        0.2559
      4 O         143.1392  139.4779  166.3895 O.2     1  UNL1       -0.2695
      5 N         142.0983  141.6814  165.4886 N.am    1  UNL1       -0.2252
      6 C         141.2568  142.9218  165.5429 C.3     1  UNL1        0.1031
      7 C         141.3893  143.6300  164.2273 C.3     1  UNL1        0.0471
      8 C         142.3129  142.8272  163.3598 C.3     1  UNL1        0.1341
      9 C         142.7511  141.6229  164.1393 C.2     1  UNL1        0.2459
     10 O         143.6791  140.5487  163.6546 O.2     1  UNL1       -0.2730
     11 C         143.4745  142.3821  168.7375 C.3     1  UNL1        0.0522
     12 C         142.1473  141.7215  168.9658 C.ar    1  UNL1        0.0637
     13 N         141.4279  141.9140  170.2678 N.ar    1  UNL1       -0.2480
     14 C         140.1006  141.2535  170.4962 C.ar    1  UNL1        0.0985
     15 C         139.4929  140.4004  169.4225 C.ar    1  UNL1        0.0208
     16 C         140.2123  140.2079  168.1204 C.ar    1  UNL1        0.0073
     17 C         141.5395  140.8684  167.8921 C.ar    1  UNL1        0.0675
     18 C         142.1386  142.4188  160.7999 C.3     1  UNL1        0.1151
     19 C         140.6498  142.3039  160.6578 C.ar    1  UNL1        0.0739
     20 C         139.7497  143.2945  159.9806 C.ar    1  UNL1        0.1147
     21 N         138.3433  142.7810  160.0721 N.ar    1  UNL1       -0.2226
     22 C         138.3742  141.4731  160.8059 C.ar    1  UNL1        0.1786
     23 N         139.7997  141.1782  161.1679 N.ar    1  UNL1       -0.3070
     24 C         140.2892  139.9699  161.9096 C.3     1  UNL1        0.1340
     25 C         139.5966  139.5289  163.1649 C.ar    1  UNL1        0.0005
     26 C         139.6644  138.0933  163.5943 C.ar    1  UNL1       -0.0017
     27 C         138.9717  137.6524  164.8496 C.ar    1  UNL1        0.0100
     28 C         138.2113  138.6470  165.6756 C.ar    1  UNL1        0.0684
     29 C         138.1434  140.0827  165.2462 C.ar    1  UNL1        0.0100
     30 C         138.8361  140.5236  163.9909 C.ar    1  UNL1       -0.0017
     31 C         137.5186  138.2061  166.9309 C.1     1  UNL1        0.1004
     32 N         136.8260  137.7652  168.1863 N.1     1  UNL1       -0.1908
@<TRIPOS>BOND
     1    11    12    1
     2    12    13   ar
     3    13    14   ar
     4    14    15   ar
     5    15    16   ar
     6    16    17   ar
     7    17     3    1
     8     3     4    2
     9     3     5   am
    10     5     6    1
    11     6     7    1
    12     7     8    1
    13     8     1    1
    14     1    18    1
    15    18    19    1
    16    19    20   ar
    17    20    21   ar
    18    21    22   ar
    19    22    23   ar
    20    23    24    1
    21    24    25    1
    22    25    26   ar
    23    26    27   ar
    24    27    28   ar
    25    28    31    1
    26    31    32    3
    27    28    29   ar
    28    29    30   ar
    29     8     9    1
    30     9    10    2
    31    17    12   ar
    32     9     5   am
    33    23    19   ar
    34    30    25   ar
    35     1     2    1
@<TRIPOS>MOLECULE
*****
 32 35 0 0 0
SMALL
GASTEIGER

@<TRIPOS>ATOM
      1 N         143.9314  139.2850  163.4265 N.3     1  UNL1       -0.2863
      2 H         143.2137  138.7769  162.9097 H       1  UNL1        0.1240
      3 C         142.3767  139.8656  168.4391 C.2     1  UNL1        0.2559
      4 O         143.0323  138.6932  169.1068 O.2     1  UNL1       -0.2695
      5 N         142.5606  140.0900  166.9674 N.am    1  UNL1       -0.2252
      6 C         141.9703  141.2122  166.1661 C.3     1  UNL1        0.1031
      7 C         142.4120  141.0473  164.7421 C.3     1  UNL1        0.0471
      8 C         143.2752  139.8231  164.6634 C.3     1  UNL1        0.1341
      9 C         143.3670  139.2315  166.0387 C.2     1  UNL1        0.2459
     10 O         144.1312  137.9979  166.4186 O.2     1  UNL1       -0.2730
     11 C         143.6343  142.2742  169.7108 C.3     1  UNL1        0.0522
     12 C         142.1660  142.0180  169.8790 C.ar    1  UNL1        0.0637
     13 N         141.3265  142.9659  170.6830 N.ar    1  UNL1       -0.2480
     14 C         139.8582  142.7097  170.8513 C.ar    1  UNL1        0.0985
     15 C         139.2293  141.5054  170.2155 C.ar    1  UNL1        0.0208
     16 C         140.0688  140.5574  169.4114 C.ar    1  UNL1        0.0073
     17 C         141.5372  140.8136  169.2432 C.ar    1  UNL1        0.0675
     18 C         144.5826  140.2234  162.4541 C.3     1  UNL1        0.1151
     19 C         144.1455  140.2389  161.0193 C.ar    1  UNL1        0.0739
     20 C         144.0067  139.0411  160.1270 C.ar    1  UNL1        0.1147
     21 N         143.5458  139.5168  158.7811 N.ar    1  UNL1       -0.2226
     22 C         143.3999  141.0085  158.8416 C.ar    1  UNL1        0.1786
     23 N         143.7704  141.4547  160.2249 N.ar    1  UNL1       -0.3070
     24 C         143.7667  142.8685  160.7259 C.3     1  UNL1        0.1340
     25 C         142.7229  143.3138  161.7068 C.ar    1  UNL1        0.0005
     26 C         143.0726  144.3073  162.7748 C.ar    1  UNL1       -0.0017
     27 C         142.0287  144.7526  163.7558 C.ar    1  UNL1        0.0100
     28 C         140.6352  144.2044  163.6686 C.ar    1  UNL1        0.0684
     29 C         140.2856  143.2110  162.6006 C.ar    1  UNL1        0.0100
     30 C         141.3294  142.7656  161.6197 C.ar    1  UNL1       -0.0017
     31 C         139.5914  144.6498  164.6496 C.1     1  UNL1        0.1004
     32 N         138.5476  145.0951  165.6305 N.1     1  UNL1       -0.1908
@<TRIPOS>BOND
     1    11    12    1
     2    12    13   ar
     3    13    14   ar
     4    14    15   ar
     5    15    16   ar
     6    16    17   ar
     7    17     3    1
     8     3     4    2
     9     3     5   am
    10     5     6    1
    11     6     7    1
    12     7     8    1
    13     8     1    1
    14     1    18    1
    15    18    19    1
    16    19    20   ar
    17    20    21   ar
    18    21    22   ar
    19    22    23   ar
    20    23    24    1
    21    24    25    1
    22    25    26   ar
    23    26    27   ar
    24    27    28   ar
    25    28    31    1
    26    31    32    3
    27    28    29   ar
    28    29    30   ar
    29     8     9    1
    30     9    10    2
    31    17    12   ar
    32     9     5   am
    33    23    19   ar
    34    30    25   ar
    35     1     2    1
@<TRIPOS>MOLECULE
*****
 32 35 0 0 0
SMALL
GASTEIGER

@<TRIPOS>ATOM
      1 N         143.2323  138.5357  161.9145 N.3     1  UNL1       -0.2863
      2 H         143.8374  137.7463  162.1406 H       1  UNL1        0.1240
      3 C         142.8792  142.2905  165.6101 C.2     1  UNL1        0.2559
      4 O         143.4639  143.4782  164.9048 O.2     1  UNL1       -0.2695
      5 N         142.7832  140.9709  164.9034 N.am    1  UNL1       -0.2252
      6 C         142.2254  139.7020  165.4769 C.3     1  UNL1        0.1031
      7 C         142.3257  138.6354  164.4271 C.3     1  UNL1        0.0471
      8 C         142.9456  139.2449  163.2047 C.3     1  UNL1        0.1341
      9 C         143.2283  140.6883  163.4991 C.2     1  UNL1        0.2459
     10 O         143.8474  141.6759  162.5549 O.2     1  UNL1       -0.2730
     11 C         140.0026  142.9524  166.1459 C.3     1  UNL1        0.0522
     12 C         140.9520  142.7534  167.2900 C.ar    1  UNL1        0.0637
     13 N         140.4632  142.8853  168.7019 N.ar    1  UNL1       -0.2480
     14 C         141.4127  142.6862  169.8460 C.ar    1  UNL1        0.0985
     15 C         142.8509  142.3553  169.5781 C.ar    1  UNL1        0.0208
     16 C         143.3398  142.2233  168.1661 C.ar    1  UNL1        0.0073
     17 C         142.3904  142.4224  167.0221 C.ar    1  UNL1        0.0675
     18 C         142.1029  137.9932  161.0897 C.3     1  UNL1        0.1151
     19 C         141.2158  138.9298  160.3244 C.ar    1  UNL1        0.0739
     20 C         141.6681  139.9563  159.3283 C.ar    1  UNL1        0.1147
     21 N         140.4525  140.6653  158.8090 N.ar    1  UNL1       -0.2226
     22 C         139.2490  140.0771  159.4840 C.ar    1  UNL1        0.1786
     23 N         139.7207  139.0045  160.4206 N.ar    1  UNL1       -0.3070
     24 C         138.8504  138.1557  161.2991 C.3     1  UNL1        0.1340
     25 C         138.7825  138.4255  162.7731 C.ar    1  UNL1        0.0005
     26 C         138.9620  137.3017  163.7503 C.ar    1  UNL1       -0.0017
     27 C         138.8941  137.5715  165.2243 C.ar    1  UNL1        0.0100
     28 C         138.6469  138.9651  165.7210 C.ar    1  UNL1        0.0684
     29 C         138.4675  140.0889  164.7438 C.ar    1  UNL1        0.0100
     30 C         138.5353  139.8191  163.2698 C.ar    1  UNL1       -0.0017
     31 C         138.5791  139.2349  167.1950 C.1     1  UNL1        0.1004
     32 N         138.5113  139.5047  168.6690 N.1     1  UNL1       -0.1908
@<TRIPOS>BOND
     1    11    12    1
     2    12    13   ar
     3    13    14   ar
     4    14    15   ar
     5    15    16   ar
     6    16    17   ar
     7    17     3    1
     8     3     4    2
     9     3     5   am
    10     5     6    1
    11     6     7    1
    12     7     8    1
    13     8     1    1
    14     1    18    1
    15    18    19    1
    16    19    20   ar
    17    20    21   ar
    18    21    22   ar
    19    22    23   ar
    20    23    24    1
    21    24    25    1
    22    25    26   ar
    23    26    27   ar
    24    27    28   ar
    25    28    31    1
    26    31    32    3
    27    28    29   ar
    28    29    30   ar
    29     8     9    1
    30     9    10    2
    31    17    12   ar
    32     9     5   am
    33    23    19   ar
    34    30    25   ar
    35     1     2    1
@<TRIPOS>MOLECULE
*****
 32 35 0 0 0
SMALL
GASTEIGER

@<TRIPOS>ATOM
      1 N         138.8606  137.7569  164.0836 N.3     1  UNL1       -0.2863
      2 H         137.8967  138.0668  163.9599 H       1  UNL1        0.1240
      3 C         139.6544  140.2204  168.6860 C.2     1  UNL1        0.2559
      4 O         138.4880  139.7439  169.5000 O.2     1  UNL1       -0.2695
      5 N         139.8233  139.7513  167.2712 N.am    1  UNL1       -0.2252
      6 C         140.9332  140.1398  166.3401 C.3     1  UNL1        0.1031
      7 C         140.7077  139.4400  165.0326 C.3     1  UNL1        0.0471
      8 C         139.4584  138.6190  165.1557 C.3     1  UNL1        0.1341
      9 C         138.9118  138.8114  166.5393 C.2     1  UNL1        0.2459
     10 O         137.6714  138.1755  167.0935 O.2     1  UNL1       -0.2730
     11 C         142.2936  139.1894  169.6717 C.3     1  UNL1        0.0522
     12 C         141.9716  140.6504  169.7796 C.ar    1  UNL1        0.0637
     13 N         142.9691  141.5959  170.3803 N.ar    1  UNL1       -0.2480
     14 C         142.6470  143.0570  170.4882 C.ar    1  UNL1        0.0985
     15 C         141.3275  143.5725  169.9954 C.ar    1  UNL1        0.0208
     16 C         140.3299  142.6270  169.3946 C.ar    1  UNL1        0.0073
     17 C         140.6519  141.1659  169.2867 C.ar    1  UNL1        0.0675
     18 C         139.4817  137.7187  162.7187 C.3     1  UNL1        0.1151
     19 C         139.1560  138.7859  161.7163 C.ar    1  UNL1        0.0739
     20 C         137.7810  139.1846  161.2682 C.ar    1  UNL1        0.1147
     21 N         137.9233  140.2870  160.2610 N.ar    1  UNL1       -0.2226
     22 C         139.3861  140.5696  160.0866 C.ar    1  UNL1        0.1786
     23 N         140.1479  139.6419  160.9860 N.ar    1  UNL1       -0.3070
     24 C         141.6397  139.5809  161.1299 C.3     1  UNL1        0.1340
     25 C         142.3372  140.4874  162.1004 C.ar    1  UNL1        0.0005
     26 C         143.6617  140.0883  162.6804 C.ar    1  UNL1       -0.0017
     27 C         144.3592  140.9948  163.6509 C.ar    1  UNL1        0.0100
     28 C         143.7323  142.3003  164.0414 C.ar    1  UNL1        0.0684
     29 C         142.4078  142.6994  163.4613 C.ar    1  UNL1        0.0100
     30 C         141.7102  141.7929  162.4909 C.ar    1  UNL1       -0.0017
     31 C         144.4298  143.2067  165.0119 C.1     1  UNL1        0.1004
     32 N         145.1273  144.1132  165.9823 N.1     1  UNL1       -0.1908
@<TRIPOS>BOND
     1    11    12    1
     2    12    13   ar
     3    13    14   ar
     4    14    15   ar
     5    15    16   ar
     6    16    17   ar
     7    17     3    1
     8     3     4    2
     9     3     5   am
    10     5     6    1
    11     6     7    1
    12     7     8    1
    13     8     1    1
    14     1    18    1
    15    18    19    1
    16    19    20   ar
    17    20    21   ar
    18    21    22   ar
    19    22    23   ar
    20    23    24    1
    21    24    25    1
    22    25    26   ar
    23    26    27   ar
    24    27    28   ar
    25    28    31    1
    26    31    32    3
    27    28    29   ar
    28    29    30   ar
    29     8     9    1
    30     9    10    2
    31    17    12   ar
    32     9     5   am
    33    23    19   ar
    34    30    25   ar
    35     1     2    1
@<TRIPOS>MOLECULE
*****
 32 35 0 0 0
SMALL
GASTEIGER

@<TRIPOS>ATOM
      1 N         137.4814  139.5560  162.7705 N.3     1  UNL1       -0.2863
      2 H         137.0559  140.3560  162.3021 H       1  UNL1        0.1240
      3 C         140.6716  142.6666  165.6039 C.2     1  UNL1        0.2559
      4 O         140.9597  143.7789  164.6396 O.2     1  UNL1       -0.2695
      5 N         139.7782  141.5328  165.1959 N.am    1  UNL1       -0.2252
      6 C         139.4011  140.3569  166.0474 C.3     1  UNL1        0.1031
      7 C         138.4949  139.4733  165.2425 C.3     1  UNL1        0.0471
      8 C         138.3118  140.1030  163.8935 C.3     1  UNL1        0.1341
      9 C         139.1049  141.3759  163.8647 C.2     1  UNL1        0.2459
     10 O         139.2068  142.3252  162.7078 O.2     1  UNL1       -0.2730
     11 C         143.6270  142.2810  165.9460 C.3     1  UNL1        0.0522
     12 C         142.7546  142.4952  167.1472 C.ar    1  UNL1        0.0637
     13 N         143.3598  142.5167  168.5195 N.ar    1  UNL1       -0.2480
     14 C         142.4874  142.7310  169.7208 C.ar    1  UNL1        0.0985
     15 C         141.0098  142.9238  169.5497 C.ar    1  UNL1        0.0208
     16 C         140.4044  142.9023  168.1774 C.ar    1  UNL1        0.0073
     17 C         141.2768  142.6881  166.9762 C.ar    1  UNL1        0.0675
     18 C         138.1217  138.7194  161.7027 C.3     1  UNL1        0.1151
     19 C         138.7872  139.3790  160.5314 C.ar    1  UNL1        0.0739
     20 C         138.1678  140.4032  159.6272 C.ar    1  UNL1        0.1147
     21 N         139.1868  140.7875  158.5955 N.ar    1  UNL1       -0.2226
     22 C         140.4358  140.0008  158.8621 C.ar    1  UNL1        0.1786
     23 N         140.1889  139.1303  160.0585 N.ar    1  UNL1       -0.3070
     24 C         141.1710  138.1783  160.6740 C.3     1  UNL1        0.1340
     25 C         141.5595  138.3292  162.1150 C.ar    1  UNL1        0.0005
     26 C         141.1608  137.2826  163.1128 C.ar    1  UNL1       -0.0017
     27 C         141.5493  137.4334  164.5538 C.ar    1  UNL1        0.0100
     28 C         142.3366  138.6308  164.9969 C.ar    1  UNL1        0.0684
     29 C         142.7353  139.6774  163.9991 C.ar    1  UNL1        0.0100
     30 C         142.3468  139.5266  162.5581 C.ar    1  UNL1       -0.0017
     31 C         142.7251  138.7817  166.4379 C.1     1  UNL1        0.1004
     32 N         143.1136  138.9325  167.8788 N.1     1  UNL1       -0.1908
@<TRIPOS>BOND
     1    11    12    1
     2    12    13   ar
     3    13    14   ar
     4    14    15   ar
     5    15    16   ar
     6    16    17   ar
     7    17     3    1
     8     3     4    2
     9     3     5   am
    10     5     6    1
    11     6     7    1
    12     7     8    1
    13     8     1    1
    14     1    18    1
    15    18    19    1
    16    19    20   ar
    17    20    21   ar
    18    21    22   ar
    19    22    23   ar
    20    23    24    1
    21    24    25    1
    22    25    26   ar
    23    26    27   ar
    24    27    28   ar
    25    28    31    1
    26    31    32    3
    27    28    29   ar
    28    29    30   ar
    29     8     9    1
    30     9    10    2
    31    17    12   ar
    32     9     5   am
    33    23    19   ar
    34    30    25   ar
    35     1     2    1
@<TRIPOS>MOLECULE
*****
 32 35 0 0 0
SMALL
GASTEIGER

@<TRIPOS>ATOM
      1 N         138.5150  139.7586  165.9384 N.3     1  UNL1       -0.2863
      2 H         137.9428  138.9264  165.7952 H       1  UNL1        0.1240
      3 C         138.9597  142.1060  161.2296 C.2     1  UNL1        0.2559
      4 O         137.7292  142.9631  161.1910 O.2     1  UNL1       -0.2695
      5 N         139.2365  141.2448  162.4262 N.am    1  UNL1       -0.2252
      6 C         140.4193  140.3402  162.6067 C.3     1  UNL1        0.1031
      7 C         140.2930  139.6734  163.9444 C.3     1  UNL1        0.0471
      8 C         139.0321  140.1658  164.5906 C.3     1  UNL1        0.1341
      9 C         138.3792  141.1370  163.6523 C.2     1  UNL1        0.2459
     10 O         137.0944  141.8715  163.8971 O.2     1  UNL1       -0.2730
     11 C         138.6407  140.1057  159.0167 C.3     1  UNL1        0.0522
     12 C         139.7537  141.1099  158.9652 C.ar    1  UNL1        0.0637
     13 N         140.7072  141.1140  157.8074 N.ar    1  UNL1       -0.2480
     14 C         141.8202  142.1183  157.7559 C.ar    1  UNL1        0.0985
     15 C         141.9797  143.1184  158.8623 C.ar    1  UNL1        0.0208
     16 C         141.0262  143.1144  160.0203 C.ar    1  UNL1        0.0073
     17 C         139.9132  142.1101  160.0717 C.ar    1  UNL1        0.0675
     18 C         139.4757  139.4384  167.0450 C.3     1  UNL1        0.1151
     19 C         139.6662  140.4050  168.1761 C.ar    1  UNL1        0.0739
     20 C         138.9186  140.3988  169.4765 C.ar    1  UNL1        0.1147
     21 N         139.4281  141.5376  170.3095 N.ar    1  UNL1       -0.2226
     22 C         140.4905  142.2475  169.5238 C.ar    1  UNL1        0.1786
     23 N         140.6376  141.5476  168.2053 N.ar    1  UNL1       -0.3070
     24 C         141.5891  141.9240  167.1085 C.3     1  UNL1        0.1340
     25 C         141.1302  142.8109  165.9892 C.ar    1  UNL1        0.0005
     26 C         141.9905  142.9903  164.7735 C.ar    1  UNL1       -0.0017
     27 C         141.5316  143.8771  163.6542 C.ar    1  UNL1        0.0100
     28 C         140.2125  144.5846  163.7505 C.ar    1  UNL1        0.0684
     29 C         139.3522  144.4053  164.9661 C.ar    1  UNL1        0.0100
     30 C         139.8111  143.5184  166.0854 C.ar    1  UNL1       -0.0017
     31 C         139.7536  145.4715  162.6311 C.1     1  UNL1        0.1004
     32 N         139.2947  146.3584  161.5117 N.1     1  UNL1       -0.1908
@<TRIPOS>BOND
     1    11    12    1
     2    12    13   ar
     3    13    14   ar
     4    14    15   ar
     5    15    16   ar
     6    16    17   ar
     7    17     3    1
     8     3     4    2
     9     3     5   am
    10     5     6    1
    11     6     7    1
    12     7     8    1
    13     8     1    1
    14     1    18    1
    15    18    19    1
    16    19    20   ar
    17    20    21   ar
    18    21    22   ar
    19    22    23   ar
    20    23    24    1
    21    24    25    1
    22    25    26   ar
    23    26    27   ar
    24    27    28   ar
    25    28    31    1
    26    31    32    3
    27    28    29   ar
    28    29    30   ar
    29     8     9    1
    30     9    10    2
    31    17    12   ar
    32     9     5   am
    33    23    19   ar
    34    30    25   ar
    35     1     2    1
