@<TRIPOS>MOLECULE
*****
 28 32 0 0 0
SMALL
GASTEIGER

@<TRIPOS>ATOM
      1 C         140.5852  141.7378  168.7052 C.3     1  UNL1        0.1726
      2 O         141.7402  142.1111  167.8239 O.3     1  UNL1       -0.4792
      3 C         141.9690  141.3767  166.5362 C.ar    1  UNL1        0.1362
      4 C         143.1240  141.7501  165.6549 C.ar    1  UNL1        0.0366
      5 C         143.3529  141.0157  164.3672 C.ar    1  UNL1        0.0032
      6 C         142.4267  139.9080  163.9607 C.ar    1  UNL1        0.0029
      7 C         141.2717  139.5346  164.8419 C.ar    1  UNL1        0.0007
      8 C         141.0429  140.2691  166.1297 C.ar    1  UNL1        0.0357
      9 C         139.8879  139.8957  167.0110 C.3     1  UNL1        0.1582
     10 C         139.9899  139.0759  165.7589 C.3     1  UNL1        0.2351
     11 O         138.8621  138.0868  165.7593 O.2     1  UNL1       -0.4478
     12 C         138.0632  138.2953  167.0116 C.2     1  UNL1        0.2770
     13 N         136.8443  137.5217  167.4188 N.pl3   1  UNL1       -0.3133
     14 N         138.6971  139.4133  167.7852 N.2     1  UNL1       -0.2202
     15 C         139.6590  140.6301  168.2987 C.3     1  UNL1        0.1174
     16 C         139.9813  140.7342  168.0528 C.3     1  UNL1        0.1502
     17 O         139.6426  140.6248  168.3113 O.3     1  UNL1       -0.3532
     18 C         139.9813  140.7342  168.0528 C.3     1  UNL1        0.1502
     19 H         136.5023  136.8018  166.8407 H       1  UNL1        0.1466
     20 H         136.3863  137.7337  168.2641 H       1  UNL1        0.1466
     21 C         142.6556  139.1736  162.6730 C.ar    1  UNL1        0.0384
     22 C         143.9389  139.3626  161.9196 C.ar    1  UNL1        0.1022
     23 N         144.1678  138.6283  160.6319 N.ar    1  UNL1       -0.2224
     24 C         143.1134  137.7049  160.0974 C.ar    1  UNL1        0.1989
     25 N         141.8302  137.5158  160.8507 N.ar    1  UNL1       -0.2224
     26 C         141.6012  138.2502  162.1385 C.ar    1  UNL1        0.1022
     27 C         140.4229  143.9704  170.0240 C.3     1  UNL1        0.0038
     28 C         140.3563  142.4722  169.9930 C.3     1  UNL1        0.0438
@<TRIPOS>BOND
     1    27    28    1
     2    28     1    1
     3     1     2    1
     4     2     3    1
     5     3     4   ar
     6     4     5   ar
     7     5     6   ar
     8     6    21    1
     9    21    22   ar
    10    22    23   ar
    11    23    24   ar
    12    24    25   ar
    13    25    26   ar
    14     6     7   ar
    15     7     8   ar
    16     8     9    1
    17     9    10    1
    18    10    11    1
    19    11    12    1
    20    12    13    1
    21    12    14    2
    22     9    15    1
    23    15    16    1
    24    16    17    1
    25    17    18    1
    26    15     1    1
    27     8     3   ar
    28    14     9    1
    29    18    15    1
    30    26    21   ar
    31    13    19    1
    32    13    20    1
@<TRIPOS>MOLECULE
*****
 28 32 0 0 0
SMALL
GASTEIGER

@<TRIPOS>ATOM
      1 C         137.9225  139.7202  169.9264 C.3     1  UNL1        0.1726
      2 O         137.7361  139.0917  168.5772 O.3     1  UNL1       -0.4792
      3 C         138.7767  139.2776  167.5130 C.ar    1  UNL1        0.1362
      4 C         138.5903  138.6492  166.1638 C.ar    1  UNL1        0.0366
      5 C         139.6309  138.8351  165.0996 C.ar    1  UNL1        0.0032
      6 C         140.8580  139.6495  165.3846 C.ar    1  UNL1        0.0029
      7 C         141.0444  140.2780  166.7338 C.ar    1  UNL1        0.0007
      8 C         140.0037  140.0920  167.7980 C.ar    1  UNL1        0.0357
      9 C         140.1901  140.7205  169.1472 C.3     1  UNL1        0.1582
     10 C         141.3104  140.9925  168.1874 C.3     1  UNL1        0.2351
     11 O         142.3249  141.8460  168.8891 O.2     1  UNL1       -0.4478
     12 C         141.8317  142.1015  170.2824 C.2     1  UNL1        0.2770
     13 N         142.5345  142.9105  171.3320 N.pl3   1  UNL1       -0.3133
     14 N         140.5123  141.4059  170.4420 N.2     1  UNL1       -0.2202
     15 C         139.1495  140.5346  170.2114 C.3     1  UNL1        0.1174
     16 C         139.0975  140.3592  169.8350 C.3     1  UNL1        0.1502
     17 O         139.1521  140.5435  170.2306 O.3     1  UNL1       -0.3532
     18 C         139.0975  140.3592  169.8350 C.3     1  UNL1        0.1502
     19 H         143.4018  143.3306  171.1309 H       1  UNL1        0.1466
     20 H         142.1284  143.0214  172.2219 H       1  UNL1        0.1466
     21 C         141.8986  139.8355  164.3204 C.ar    1  UNL1        0.0384
     22 C         142.9313  138.7728  164.0874 C.ar    1  UNL1        0.1022
     23 N         143.9719  138.9587  163.0232 N.ar    1  UNL1       -0.2224
     24 C         143.9798  140.2073  162.1920 C.ar    1  UNL1        0.1989
     25 N         142.9472  141.2700  162.4249 N.ar    1  UNL1       -0.2224
     26 C         141.9065  141.0841  163.4892 C.ar    1  UNL1        0.1022
     27 C         136.1361  138.2367  171.0918 C.3     1  UNL1        0.0038
     28 C         136.8818  139.5342  170.9906 C.3     1  UNL1        0.0438
@<TRIPOS>BOND
     1    27    28    1
     2    28     1    1
     3     1     2    1
     4     2     3    1
     5     3     4   ar
     6     4     5   ar
     7     5     6   ar
     8     6    21    1
     9    21    22   ar
    10    22    23   ar
    11    23    24   ar
    12    24    25   ar
    13    25    26   ar
    14     6     7   ar
    15     7     8   ar
    16     8     9    1
    17     9    10    1
    18    10    11    1
    19    11    12    1
    20    12    13    1
    21    12    14    2
    22     9    15    1
    23    15    16    1
    24    16    17    1
    25    17    18    1
    26    15     1    1
    27     8     3   ar
    28    14     9    1
    29    18    15    1
    30    26    21   ar
    31    13    19    1
    32    13    20    1
@<TRIPOS>MOLECULE
*****
 28 32 0 0 0
SMALL
GASTEIGER

@<TRIPOS>ATOM
      1 C         139.6801  138.3825  163.4955 C.3     1  UNL1        0.1726
      2 O         140.8775  139.2859  163.5084 O.3     1  UNL1       -0.4792
      3 C         141.2427  140.0293  164.7590 C.ar    1  UNL1        0.1362
      4 C         142.4401  140.9327  164.7719 C.ar    1  UNL1        0.0366
      5 C         142.8053  141.6760  166.0225 C.ar    1  UNL1        0.0032
      6 C         141.9732  141.5160  167.2602 C.ar    1  UNL1        0.0029
      7 C         140.7758  140.6125  167.2473 C.ar    1  UNL1        0.0007
      8 C         140.4106  139.8692  165.9966 C.ar    1  UNL1        0.0357
      9 C         139.2132  138.9658  165.9837 C.3     1  UNL1        0.1582
     10 C         139.4540  139.6409  167.3015 C.3     1  UNL1        0.2351
     11 O         138.3837  139.1948  168.2532 O.2     1  UNL1       -0.4478
     12 C         137.4816  138.2441  167.5237 C.2     1  UNL1        0.2770
     13 N         136.2781  137.5557  168.0962 N.pl3   1  UNL1       -0.3133
     14 N         137.9942  138.1025  166.1211 N.2     1  UNL1       -0.2202
     15 C         138.8480  138.2224  164.7332 C.3     1  UNL1        0.1174
     16 C         139.1821  138.4745  164.7368 C.3     1  UNL1        0.1502
     17 O         138.8309  138.2095  164.7330 O.3     1  UNL1       -0.3532
     18 C         139.1821  138.4745  164.7368 C.3     1  UNL1        0.1502
     19 H         136.0200  137.7136  169.0331 H       1  UNL1        0.1466
     20 H         135.7463  136.9461  167.5352 H       1  UNL1        0.1466
     21 C         142.3384  142.2593  168.5108 C.ar    1  UNL1        0.0384
     22 C         143.7683  142.3125  168.9612 C.ar    1  UNL1        0.1022
     23 N         144.1335  143.0559  170.2118 N.ar    1  UNL1       -0.2224
     24 C         143.0689  143.7460  171.0121 C.ar    1  UNL1        0.1989
     25 N         141.6392  143.6928  170.5617 N.ar    1  UNL1       -0.2224
     26 C         141.2739  142.9494  169.3111 C.ar    1  UNL1        0.1022
     27 C         138.9187  138.3954  161.0115 C.3     1  UNL1        0.0038
     28 C         139.3149  137.6392  162.2448 C.3     1  UNL1        0.0438
@<TRIPOS>BOND
     1    27    28    1
     2    28     1    1
     3     1     2    1
     4     2     3    1
     5     3     4   ar
     6     4     5   ar
     7     5     6   ar
     8     6    21    1
     9    21    22   ar
    10    22    23   ar
    11    23    24   ar
    12    24    25   ar
    13    25    26   ar
    14     6     7   ar
    15     7     8   ar
    16     8     9    1
    17     9    10    1
    18    10    11    1
    19    11    12    1
    20    12    13    1
    21    12    14    2
    22     9    15    1
    23    15    16    1
    24    16    17    1
    25    17    18    1
    26    15     1    1
    27     8     3   ar
    28    14     9    1
    29    18    15    1
    30    26    21   ar
    31    13    19    1
    32    13    20    1
@<TRIPOS>MOLECULE
*****
 28 32 0 0 0
SMALL
GASTEIGER

@<TRIPOS>ATOM
      1 C         141.1356  140.9306  168.9815 C.3     1  UNL1        0.1726
      2 O         141.7643  141.8860  168.0110 O.3     1  UNL1       -0.4792
      3 C         141.2395  141.9851  166.6094 C.ar    1  UNL1        0.1362
      4 C         141.8683  142.9406  165.6389 C.ar    1  UNL1        0.0366
      5 C         141.3434  143.0397  164.2372 C.ar    1  UNL1        0.0032
      6 C         140.1898  142.1833  163.8060 C.ar    1  UNL1        0.0029
      7 C         139.5610  141.2279  164.7765 C.ar    1  UNL1        0.0007
      8 C         140.0859  141.1288  166.1782 C.ar    1  UNL1        0.0357
      9 C         139.4572  140.1734  167.1487 C.3     1  UNL1        0.1582
     10 C         138.8276  140.1626  165.7872 C.3     1  UNL1        0.2351
     11 O         137.7119  139.1600  165.8004 O.2     1  UNL1       -0.4478
     12 C         137.6519  138.5512  167.1699 C.2     1  UNL1        0.2770
     13 N         136.6834  137.5006  167.6261 N.pl3   1  UNL1       -0.3133
     14 N         138.7306  139.1775  168.0033 N.2     1  UNL1       -0.2202
     15 C         139.9820  140.0743  168.5504 C.3     1  UNL1        0.1174
     16 C         140.1574  140.3409  168.2796 C.3     1  UNL1        0.1502
     17 O         139.9731  140.0607  168.5642 O.3     1  UNL1       -0.3532
     18 C         140.1574  140.3409  168.2796 C.3     1  UNL1        0.1502
     19 H         136.0077  137.1497  167.0019 H       1  UNL1        0.1466
     20 H         136.7234  137.1619  168.5497 H       1  UNL1        0.1466
     21 C         139.6650  142.2824  162.4043 C.ar    1  UNL1        0.0384
     22 C         138.2743  142.7881  162.1581 C.ar    1  UNL1        0.1022
     23 N         137.7495  142.8872  160.7565 N.ar    1  UNL1       -0.2224
     24 C         138.6152  142.4807  159.6010 C.ar    1  UNL1        0.1989
     25 N         140.0058  141.9750  159.8471 N.ar    1  UNL1       -0.2224
     26 C         140.5307  141.8759  161.2488 C.ar    1  UNL1        0.1022
     27 C         142.9520  140.1175  170.6518 C.3     1  UNL1        0.0038
     28 C         141.6605  140.8315  170.3832 C.3     1  UNL1        0.0438
@<TRIPOS>BOND
     1    27    28    1
     2    28     1    1
     3     1     2    1
     4     2     3    1
     5     3     4   ar
     6     4     5   ar
     7     5     6   ar
     8     6    21    1
     9    21    22   ar
    10    22    23   ar
    11    23    24   ar
    12    24    25   ar
    13    25    26   ar
    14     6     7   ar
    15     7     8   ar
    16     8     9    1
    17     9    10    1
    18    10    11    1
    19    11    12    1
    20    12    13    1
    21    12    14    2
    22     9    15    1
    23    15    16    1
    24    16    17    1
    25    17    18    1
    26    15     1    1
    27     8     3   ar
    28    14     9    1
    29    18    15    1
    30    26    21   ar
    31    13    19    1
    32    13    20    1
@<TRIPOS>MOLECULE
*****
 28 32 0 0 0
SMALL
GASTEIGER

@<TRIPOS>ATOM
      1 C         142.4885  138.9997  169.6465 C.3     1  UNL1        0.1726
      2 O         143.0224  138.9256  168.2467 O.3     1  UNL1       -0.4792
      3 C         142.6753  139.9952  167.2540 C.ar    1  UNL1        0.1362
      4 C         143.2092  139.9212  165.8542 C.ar    1  UNL1        0.0366
      5 C         142.8621  140.9908  164.8616 C.ar    1  UNL1        0.0032
      6 C         141.9811  142.1345  165.2687 C.ar    1  UNL1        0.0029
      7 C         141.4472  142.2086  166.6685 C.ar    1  UNL1        0.0007
      8 C         141.7943  141.1389  167.6612 C.ar    1  UNL1        0.0357
      9 C         141.2605  141.2130  169.0610 C.3     1  UNL1        0.1582
     10 C         140.8298  142.3504  168.1828 C.3     1  UNL1        0.2351
     11 O         139.9586  143.2605  168.9970 O.2     1  UNL1       -0.4478
     12 C         139.8508  142.6857  170.3782 C.2     1  UNL1        0.2770
     13 N         139.0747  143.2731  171.5195 N.pl3   1  UNL1       -0.3133
     14 N         140.6554  141.4203  170.4178 N.2     1  UNL1       -0.2202
     15 C         141.6075  140.1434  170.0537 C.3     1  UNL1        0.1174
     16 C         141.7565  140.1227  169.6631 C.3     1  UNL1        0.1502
     17 O         141.5999  140.1445  170.0737 O.3     1  UNL1       -0.3532
     18 C         141.7565  140.1227  169.6631 C.3     1  UNL1        0.1502
     19 H         138.5752  144.1124  171.3949 H       1  UNL1        0.1466
     20 H         139.0647  142.8195  172.3932 H       1  UNL1        0.1466
     21 C         141.6340  143.2041  164.2760 C.ar    1  UNL1        0.0384
     22 C         140.3764  144.0043  164.4446 C.ar    1  UNL1        0.1022
     23 N         140.0293  145.0739  163.4519 N.ar    1  UNL1       -0.2224
     24 C         140.9397  145.3434  162.2907 C.ar    1  UNL1        0.1989
     25 N         142.1972  144.5433  162.1221 N.ar    1  UNL1       -0.2224
     26 C         142.5444  143.4737  163.1148 C.ar    1  UNL1        0.1022
     27 C         143.9806  136.9994  170.3693 C.3     1  UNL1        0.0038
     28 C         142.8356  137.9300  170.6392 C.3     1  UNL1        0.0438
@<TRIPOS>BOND
     1    27    28    1
     2    28     1    1
     3     1     2    1
     4     2     3    1
     5     3     4   ar
     6     4     5   ar
     7     5     6   ar
     8     6    21    1
     9    21    22   ar
    10    22    23   ar
    11    23    24   ar
    12    24    25   ar
    13    25    26   ar
    14     6     7   ar
    15     7     8   ar
    16     8     9    1
    17     9    10    1
    18    10    11    1
    19    11    12    1
    20    12    13    1
    21    12    14    2
    22     9    15    1
    23    15    16    1
    24    16    17    1
    25    17    18    1
    26    15     1    1
    27     8     3   ar
    28    14     9    1
    29    18    15    1
    30    26    21   ar
    31    13    19    1
    32    13    20    1
@<TRIPOS>MOLECULE
*****
 28 32 0 0 0
SMALL
GASTEIGER

@<TRIPOS>ATOM
      1 C         143.7540  139.4988  162.1617 C.3     1  UNL1        0.1726
      2 O         143.6753  138.6202  163.3749 O.3     1  UNL1       -0.4792
      3 C         143.3521  139.2163  164.7129 C.ar    1  UNL1        0.1362
      4 C         143.2734  138.3377  165.9261 C.ar    1  UNL1        0.0366
      5 C         142.9503  138.9338  167.2641 C.ar    1  UNL1        0.0032
      6 C         142.7058  140.4085  167.3889 C.ar    1  UNL1        0.0029
      7 C         142.7845  141.2871  166.1756 C.ar    1  UNL1        0.0007
      8 C         143.1076  140.6909  164.8376 C.ar    1  UNL1        0.0357
      9 C         143.1863  141.5695  163.6244 C.3     1  UNL1        0.1582
     10 C         142.8549  142.3044  164.8894 C.3     1  UNL1        0.2351
     11 O         142.6941  143.7574  164.5528 O.2     1  UNL1       -0.4478
     12 C         142.9261  143.9204  163.0799 C.2     1  UNL1        0.2770
     13 N         142.8646  145.2093  162.3150 N.pl3   1  UNL1       -0.3133
     14 N         143.2303  142.5682  162.5060 N.2     1  UNL1       -0.2202
     15 C         143.5095  140.9734  162.2864 C.3     1  UNL1        0.1174
     16 C         143.4875  140.7283  162.6249 C.3     1  UNL1        0.1502
     17 O         143.5106  140.9859  162.2691 O.3     1  UNL1       -0.3532
     18 C         143.4875  140.7283  162.6249 C.3     1  UNL1        0.1502
     19 H         142.6561  146.0499  162.7830 H       1  UNL1        0.1466
     20 H         143.0328  145.2145  161.3450 H       1  UNL1        0.1466
     21 C         142.3826  141.0046  168.7268 C.ar    1  UNL1        0.0384
     22 C         141.6475  140.1928  169.7518 C.ar    1  UNL1        0.1022
     23 N         141.3243  140.7888  171.0898 N.ar    1  UNL1       -0.2224
     24 C         141.7363  142.1968  171.4028 C.ar    1  UNL1        0.1989
     25 N         142.4714  143.0086  170.3780 N.ar    1  UNL1       -0.2224
     26 C         142.7946  142.4125  169.0399 C.ar    1  UNL1        0.1022
     27 C         143.1902  137.8426  160.2409 C.3     1  UNL1        0.0038
     28 C         144.0771  138.9026  160.8236 C.3     1  UNL1        0.0438
@<TRIPOS>BOND
     1    27    28    1
     2    28     1    1
     3     1     2    1
     4     2     3    1
     5     3     4   ar
     6     4     5   ar
     7     5     6   ar
     8     6    21    1
     9    21    22   ar
    10    22    23   ar
    11    23    24   ar
    12    24    25   ar
    13    25    26   ar
    14     6     7   ar
    15     7     8   ar
    16     8     9    1
    17     9    10    1
    18    10    11    1
    19    11    12    1
    20    12    13    1
    21    12    14    2
    22     9    15    1
    23    15    16    1
    24    16    17    1
    25    17    18    1
    26    15     1    1
    27     8     3   ar
    28    14     9    1
    29    18    15    1
    30    26    21   ar
    31    13    19    1
    32    13    20    1
@<TRIPOS>MOLECULE
*****
 28 32 0 0 0
SMALL
GASTEIGER

@<TRIPOS>ATOM
      1 C         141.2480  142.0213  168.9455 C.3     1  UNL1        0.1726
      2 O         142.0075  140.7485  168.7149 O.3     1  UNL1       -0.4792
      3 C         142.1770  140.2182  167.3221 C.ar    1  UNL1        0.1362
      4 C         142.9364  138.9454  167.0915 C.ar    1  UNL1        0.0366
      5 C         143.1060  138.4150  165.6987 C.ar    1  UNL1        0.0032
      6 C         142.5160  139.1574  164.5364 C.ar    1  UNL1        0.0029
      7 C         141.7565  140.4302  164.7670 C.ar    1  UNL1        0.0007
      8 C         141.5870  140.9606  166.1599 C.ar    1  UNL1        0.0357
      9 C         140.8276  142.2334  166.3906 C.3     1  UNL1        0.1582
     10 C         140.9147  141.8276  164.9491 C.3     1  UNL1        0.2351
     11 O         140.1878  142.8555  164.1334 O.2     1  UNL1       -0.4478
     12 C         139.6515  143.8965  165.0707 C.2     1  UNL1        0.2770
     13 N         138.8590  145.1090  164.6814 N.pl3   1  UNL1       -0.3133
     14 N         140.0469  143.5120  166.4657 N.2     1  UNL1       -0.2202
     15 C         140.6580  142.7638  167.7834 C.3     1  UNL1        0.1174
     16 C         140.8699  142.4086  167.7190 C.3     1  UNL1        0.1502
     17 O         140.6472  142.7819  167.7866 O.3     1  UNL1       -0.3532
     18 C         140.8699  142.4086  167.7190 C.3     1  UNL1        0.1502
     19 H         138.6484  145.2763  163.7343 H       1  UNL1        0.1466
     20 H         138.5494  145.7376  165.3729 H       1  UNL1        0.1466
     21 C         142.6855  138.6271  163.1436 C.ar    1  UNL1        0.0384
     22 C         144.0161  138.7299  162.4587 C.ar    1  UNL1        0.1022
     23 N         144.1856  138.1995  161.0659 N.ar    1  UNL1       -0.2224
     24 C         143.0246  137.5664  160.3579 C.ar    1  UNL1        0.1989
     25 N         141.6941  137.4636  161.0428 N.ar    1  UNL1       -0.2224
     26 C         141.5245  137.9939  162.4357 C.ar    1  UNL1        0.1022
     27 C         141.1534  141.6186  171.5105 C.3     1  UNL1        0.0038
     28 C         141.0785  142.5517  170.3384 C.3     1  UNL1        0.0438
@<TRIPOS>BOND
     1    27    28    1
     2    28     1    1
     3     1     2    1
     4     2     3    1
     5     3     4   ar
     6     4     5   ar
     7     5     6   ar
     8     6    21    1
     9    21    22   ar
    10    22    23   ar
    11    23    24   ar
    12    24    25   ar
    13    25    26   ar
    14     6     7   ar
    15     7     8   ar
    16     8     9    1
    17     9    10    1
    18    10    11    1
    19    11    12    1
    20    12    13    1
    21    12    14    2
    22     9    15    1
    23    15    16    1
    24    16    17    1
    25    17    18    1
    26    15     1    1
    27     8     3   ar
    28    14     9    1
    29    18    15    1
    30    26    21   ar
    31    13    19    1
    32    13    20    1
@<TRIPOS>MOLECULE
*****
 28 32 0 0 0
SMALL
GASTEIGER

@<TRIPOS>ATOM
      1 C         138.5117  139.1428  165.4133 C.3     1  UNL1        0.1726
      2 O         139.4802  138.1410  164.8581 O.3     1  UNL1       -0.4792
      3 C         140.2168  138.4357  163.5851 C.ar    1  UNL1        0.1362
      4 C         141.1854  137.4339  163.0299 C.ar    1  UNL1        0.0366
      5 C         141.9220  137.7286  161.7569 C.ar    1  UNL1        0.0032
      6 C         141.6900  139.0251  161.0391 C.ar    1  UNL1        0.0029
      7 C         140.7215  140.0269  161.5943 C.ar    1  UNL1        0.0007
      8 C         139.9849  139.7322  162.8673 C.ar    1  UNL1        0.0357
      9 C         139.0163  140.7340  163.4226 C.3     1  UNL1        0.1582
     10 C         139.6764  141.1658  162.1466 C.3     1  UNL1        0.2351
     11 O         139.1515  142.5251  161.7902 O.2     1  UNL1       -0.4478
     12 C         138.1671  142.9333  162.8457 C.2     1  UNL1        0.2770
     13 N         137.4008  144.2222  162.8854 N.pl3   1  UNL1       -0.3133
     14 N         138.0835  141.8264  163.8546 N.2     1  UNL1       -0.2202
     15 C         138.2797  140.4393  164.6955 C.3     1  UNL1        0.1174
     16 C         138.5499  140.1598  164.5406 C.3     1  UNL1        0.1502
     17 O         138.2659  140.4536  164.7035 O.3     1  UNL1       -0.3532
     18 C         138.5499  140.1598  164.5406 C.3     1  UNL1        0.1502
     19 H         137.5245  144.8906  162.1732 H       1  UNL1        0.1466
     20 H         136.7741  144.3997  163.6236 H       1  UNL1        0.1466
     21 C         142.4266  139.3198  159.7661 C.ar    1  UNL1        0.0384
     22 C         142.5962  138.2465  158.7320 C.ar    1  UNL1        0.1022
     23 N         143.3328  138.5411  157.4590 N.ar    1  UNL1       -0.2224
     24 C         143.8998  139.9091  157.2200 C.ar    1  UNL1        0.1989
     25 N         143.7303  140.9824  158.2540 N.ar    1  UNL1       -0.2224
     26 C         142.9937  140.6878  159.5271 C.ar    1  UNL1        0.1022
     27 C         137.4004  137.4360  167.0264 C.3     1  UNL1        0.0038
     28 C         137.7751  138.8481  166.6864 C.3     1  UNL1        0.0438
@<TRIPOS>BOND
     1    27    28    1
     2    28     1    1
     3     1     2    1
     4     2     3    1
     5     3     4   ar
     6     4     5   ar
     7     5     6   ar
     8     6    21    1
     9    21    22   ar
    10    22    23   ar
    11    23    24   ar
    12    24    25   ar
    13    25    26   ar
    14     6     7   ar
    15     7     8   ar
    16     8     9    1
    17     9    10    1
    18    10    11    1
    19    11    12    1
    20    12    13    1
    21    12    14    2
    22     9    15    1
    23    15    16    1
    24    16    17    1
    25    17    18    1
    26    15     1    1
    27     8     3   ar
    28    14     9    1
    29    18    15    1
    30    26    21   ar
    31    13    19    1
    32    13    20    1
@<TRIPOS>MOLECULE
*****
 28 32 0 0 0
SMALL
GASTEIGER

@<TRIPOS>ATOM
      1 C         141.3154  144.3520  161.6004 C.3     1  UNL1        0.1726
      2 O         142.5574  144.4637  162.4339 O.3     1  UNL1       -0.4792
      3 C         142.6436  143.7508  163.7508 C.ar    1  UNL1        0.1362
      4 C         143.8856  143.8626  164.5843 C.ar    1  UNL1        0.0366
      5 C         143.9717  143.1497  165.9013 C.ar    1  UNL1        0.0032
      6 C         142.8158  142.3250  166.3847 C.ar    1  UNL1        0.0029
      7 C         141.5737  142.2132  165.5512 C.ar    1  UNL1        0.0007
      8 C         141.4876  142.9262  164.2342 C.ar    1  UNL1        0.0357
      9 C         140.2455  142.8144  163.4007 C.3     1  UNL1        0.1582
     10 C         140.1864  142.0489  164.6893 C.3     1  UNL1        0.2351
     11 O         138.8500  141.3718  164.7653 O.2     1  UNL1       -0.4478
     12 C         138.0832  141.7189  163.5238 C.2     1  UNL1        0.2770
     13 N         136.6973  141.2557  163.1851 N.pl3   1  UNL1       -0.3133
     14 N         138.9457  142.6105  162.6803 N.2     1  UNL1       -0.2202
     15 C         140.1594  143.5273  162.0837 C.3     1  UNL1        0.1174
     16 C         140.5060  143.5585  162.3163 C.3     1  UNL1        0.1502
     17 O         140.1417  143.5257  162.0718 O.3     1  UNL1       -0.3532
     18 C         140.5060  143.5585  162.3163 C.3     1  UNL1        0.1502
     19 H         136.2089  140.6686  163.8064 H       1  UNL1        0.1466
     20 H         136.2761  141.5389  162.3415 H       1  UNL1        0.1466
     21 C         142.9019  141.6121  167.7016 C.ar    1  UNL1        0.0384
     22 C         143.2090  142.3813  168.9522 C.ar    1  UNL1        0.1022
     23 N         143.2952  141.6684  170.2692 N.ar    1  UNL1       -0.2224
     24 C         143.0742  140.1863  170.3355 C.ar    1  UNL1        0.1989
     25 N         142.7670  139.4170  169.0850 N.ar    1  UNL1       -0.2224
     26 C         142.6809  140.1299  167.7680 C.ar    1  UNL1        0.1022
     27 C         141.8301  144.4474  159.0556 C.3     1  UNL1        0.0038
     28 C         141.2293  145.0649  160.2834 C.3     1  UNL1        0.0438
@<TRIPOS>BOND
     1    27    28    1
     2    28     1    1
     3     1     2    1
     4     2     3    1
     5     3     4   ar
     6     4     5   ar
     7     5     6   ar
     8     6    21    1
     9    21    22   ar
    10    22    23   ar
    11    23    24   ar
    12    24    25   ar
    13    25    26   ar
    14     6     7   ar
    15     7     8   ar
    16     8     9    1
    17     9    10    1
    18    10    11    1
    19    11    12    1
    20    12    13    1
    21    12    14    2
    22     9    15    1
    23    15    16    1
    24    16    17    1
    25    17    18    1
    26    15     1    1
    27     8     3   ar
    28    14     9    1
    29    18    15    1
    30    26    21   ar
    31    13    19    1
    32    13    20    1
