@<TRIPOS>MOLECULE
*****
 33 37 0 0 0
SMALL
GASTEIGER

@<TRIPOS>ATOM
      1 C         138.4945  139.4848  164.3933 C.ar    1  UNL1        0.1564
      2 C         138.9103  138.0624  164.1616 C.ar    1  UNL1        0.0385
      3 C         139.2926  137.6076  162.7843 C.ar    1  UNL1        0.0033
      4 C         139.2591  138.5752  161.6387 C.ar    1  UNL1        0.0048
      5 C         138.8433  139.9977  161.8704 C.ar    1  UNL1        0.0567
      6 C         138.4610  140.4525  163.2477 C.ar    1  UNL1        0.1209
      7 N         138.0452  141.8750  163.4793 N.ar    1  UNL1       -0.2108
      8 C         138.0117  142.8426  162.3337 C.ar    1  UNL1        0.2163
      9 N         137.5959  144.2652  162.5654 N.pl3   1  UNL1       -0.3274
     10 N         138.3940  142.3878  160.9564 N.ar    1  UNL1       -0.1813
     11 N         138.4570  143.1090  159.6426 N.ar    1  UNL1       -0.1451
     12 C         138.9118  142.1322  158.5991 C.ar    1  UNL1        0.1769
     13 N         139.1298  140.8074  159.2678 N.ar    1  UNL1       -0.2086
     14 C         138.8098  140.9654  160.7247 C.ar    1  UNL1        0.1695
     15 H         137.3449  144.5637  163.4693 H       1  UNL1        0.1452
     16 H         137.5739  144.9003  161.8134 H       1  UNL1        0.1452
     17 C         137.9804  138.9399  166.8810 C.3     1  UNL1        0.2525
     18 O         138.1122  139.9397  165.7706 O.3     1  UNL1       -0.4699
     19 C         139.1132  142.4283  157.1424 C.3     1  UNL1        0.1408
     20 N         139.1445  143.8494  156.6632 N.3     1  UNL1       -0.2644
     21 C         140.2346  144.7719  157.1224 C.3     1  UNL1        0.0941
     22 C         140.2659  146.1929  156.6432 C.3     1  UNL1        0.1081
     23 N         139.2070  146.6915  155.7050 N.pl3   1  UNL1       -0.3047
     24 C         138.1169  145.7691  155.2459 C.3     1  UNL1        0.1067
     25 C         138.0857  144.3480  155.7250 C.3     1  UNL1        0.0777
     26 C         136.9956  143.4256  155.2660 C.3     1  UNL1        0.0192
     27 C         139.2383  148.1126  155.2258 C.ar    1  UNL1        0.0481
     28 C         138.5274  149.1816  156.0018 C.ar    1  UNL1        0.0168
     29 C         138.5587  150.6026  155.5227 C.ar    1  UNL1        0.0309
     30 C         139.3008  150.9548  154.2676 C.ar    1  UNL1        0.1402
     31 F         139.3321  152.3758  153.7884 F       1  UNL1       -0.2042
     32 C         140.0117  149.8859  153.4916 C.ar    1  UNL1        0.0309
     33 C         139.9804  148.4648  153.9708 C.ar    1  UNL1        0.0168
@<TRIPOS>BOND
     1    17    18    1
     2    18     1    1
     3     1     2   ar
     4     2     3   ar
     5     3     4   ar
     6     4     5   ar
     7     5     6   ar
     8     6     7   ar
     9     7     8   ar
    10     8     9    1
    11     8    10   ar
    12    10    11   ar
    13    11    12   ar
    14    12    19    1
    15    19    20    1
    16    20    21    1
    17    21    22    1
    18    22    23    1
    19    23    27    1
    20    27    28   ar
    21    28    29   ar
    22    29    30   ar
    23    30    31    1
    24    30    32   ar
    25    32    33   ar
    26    23    24    1
    27    24    25    1
    28    25    26    1
    29    12    13   ar
    30    13    14   ar
    31     6     1   ar
    32    14    10   ar
    33    14     5   ar
    34    25    20    1
    35    33    27   ar
    36     9    15    1
    37     9    16    1
@<TRIPOS>MOLECULE
*****
 33 37 0 0 0
SMALL
GASTEIGER

@<TRIPOS>ATOM
      1 C         143.9697  131.6349  155.3428 C.ar    1  UNL1        0.1564
      2 C         144.8490  131.1408  156.4530 C.ar    1  UNL1        0.0385
      3 C         145.0992  132.0053  157.6530 C.ar    1  UNL1        0.0033
      4 C         144.4700  133.3640  157.7428 C.ar    1  UNL1        0.0048
      5 C         143.5907  133.8581  156.6326 C.ar    1  UNL1        0.0567
      6 C         143.3405  132.9936  155.4326 C.ar    1  UNL1        0.1209
      7 N         142.4611  133.4878  154.3224 N.ar    1  UNL1       -0.2108
      8 C         141.8320  134.8465  154.4123 C.ar    1  UNL1        0.2163
      9 N         140.9526  135.3407  153.3021 N.pl3   1  UNL1       -0.3274
     10 N         142.0822  135.7110  155.6123 N.ar    1  UNL1       -0.1813
     11 N         141.6023  137.0845  155.9774 N.ar    1  UNL1       -0.1451
     12 C         142.1851  137.4391  157.3133 C.ar    1  UNL1        0.1769
     13 N         143.0252  136.2848  157.7737 N.ar    1  UNL1       -0.2086
     14 C         142.9615  135.2169  156.7224 C.ar    1  UNL1        0.1695
     15 H         140.7883  134.7733  152.5144 H       1  UNL1        0.1452
     16 H         140.5396  136.2325  153.3610 H       1  UNL1        0.1452
     17 C         144.5312  129.5268  153.9320 C.3     1  UNL1        0.2525
     18 O         143.7195  130.7704  154.1428 O.3     1  UNL1       -0.4699
     19 C         141.9663  138.7227  158.0580 C.3     1  UNL1        0.1408
     20 N         141.3217  138.7036  159.4123 N.3     1  UNL1       -0.2644
     21 C         139.8267  138.6711  159.5309 C.3     1  UNL1        0.0941
     22 C         139.1820  138.6520  160.8851 C.3     1  UNL1        0.1081
     23 N         140.0323  138.6652  162.1208 N.pl3   1  UNL1       -0.3047
     24 C         141.5273  138.6977  162.0022 C.3     1  UNL1        0.1067
     25 C         142.1719  138.7168  160.6479 C.3     1  UNL1        0.0777
     26 C         143.6668  138.7493  160.5293 C.3     1  UNL1        0.0192
     27 C         139.3877  138.6460  163.4751 C.ar    1  UNL1        0.0481
     28 C         139.3404  137.3719  164.2653 C.ar    1  UNL1        0.0168
     29 C         138.6957  137.3527  165.6195 C.ar    1  UNL1        0.0309
     30 C         138.0983  138.6077  166.1836 C.ar    1  UNL1        0.1402
     31 F         137.4537  138.5885  167.5379 F       1  UNL1       -0.2042
     32 C         138.1456  139.8818  165.3935 C.ar    1  UNL1        0.0309
     33 C         138.7903  139.9010  164.0392 C.ar    1  UNL1        0.0168
@<TRIPOS>BOND
     1    17    18    1
     2    18     1    1
     3     1     2   ar
     4     2     3   ar
     5     3     4   ar
     6     4     5   ar
     7     5     6   ar
     8     6     7   ar
     9     7     8   ar
    10     8     9    1
    11     8    10   ar
    12    10    11   ar
    13    11    12   ar
    14    12    19    1
    15    19    20    1
    16    20    21    1
    17    21    22    1
    18    22    23    1
    19    23    27    1
    20    27    28   ar
    21    28    29   ar
    22    29    30   ar
    23    30    31    1
    24    30    32   ar
    25    32    33   ar
    26    23    24    1
    27    24    25    1
    28    25    26    1
    29    12    13   ar
    30    13    14   ar
    31     6     1   ar
    32    14    10   ar
    33    14     5   ar
    34    25    20    1
    35    33    27   ar
    36     9    15    1
    37     9    16    1
@<TRIPOS>MOLECULE
*****
 33 37 0 0 0
SMALL
GASTEIGER

@<TRIPOS>ATOM
      1 C         142.8558  132.0147  153.4895 C.ar    1  UNL1        0.1564
      2 C         142.0769  132.4083  152.2696 C.ar    1  UNL1        0.0385
      3 C         141.4222  133.7561  152.2003 C.ar    1  UNL1        0.0033
      4 C         141.5464  134.7103  153.3509 C.ar    1  UNL1        0.0048
      5 C         142.3253  134.3167  154.5708 C.ar    1  UNL1        0.0567
      6 C         142.9800  132.9689  154.6401 C.ar    1  UNL1        0.1209
      7 N         143.7590  132.5754  155.8602 N.ar    1  UNL1       -0.2108
      8 C         143.8832  133.5296  157.0108 C.ar    1  UNL1        0.2163
      9 N         144.6622  133.1360  158.2309 N.pl3   1  UNL1       -0.3274
     10 N         143.2285  134.8774  156.9415 N.ar    1  UNL1       -0.1813
     11 N         143.1779  136.0198  157.9122 N.ar    1  UNL1       -0.1451
     12 C         142.3677  137.1194  157.2922 C.ar    1  UNL1        0.1769
     13 N         141.9175  136.6565  155.9383 N.ar    1  UNL1       -0.2086
     14 C         142.4496  135.2709  155.7216 C.ar    1  UNL1        0.1695
     15 H         145.0919  132.2514  158.2764 H       1  UNL1        0.1452
     16 H         144.7437  133.7623  158.9861 H       1  UNL1        0.1452
     17 C         143.7981  129.9071  152.2979 C.3     1  UNL1        0.2525
     18 O         143.5106  130.6669  153.5588 O.3     1  UNL1       -0.4699
     19 C         142.0614  138.4485  157.9165 C.3     1  UNL1        0.1408
     20 N         141.4087  138.5108  159.2656 N.3     1  UNL1       -0.2644
     21 C         139.9144  138.4438  159.3797 C.3     1  UNL1        0.0941
     22 C         139.2617  138.5061  160.7288 C.3     1  UNL1        0.1081
     23 N         140.1032  138.6354  161.9638 N.pl3   1  UNL1       -0.3047
     24 C         141.5973  138.7023  161.8497 C.3     1  UNL1        0.1067
     25 C         142.2501  138.6400  160.5006 C.3     1  UNL1        0.0777
     26 C         143.7442  138.7069  160.3865 C.3     1  UNL1        0.0192
     27 C         139.4505  138.6977  163.3129 C.ar    1  UNL1        0.0481
     28 C         139.4071  137.4759  164.1823 C.ar    1  UNL1        0.0168
     29 C         138.7544  137.5382  165.5314 C.ar    1  UNL1        0.0309
     30 C         138.1451  138.8222  166.0112 C.ar    1  UNL1        0.1402
     31 F         137.4923  138.8845  167.3603 F       1  UNL1       -0.2042
     32 C         138.1885  140.0439  165.1419 C.ar    1  UNL1        0.0309
     33 C         138.8412  139.9816  163.7928 C.ar    1  UNL1        0.0168
@<TRIPOS>BOND
     1    17    18    1
     2    18     1    1
     3     1     2   ar
     4     2     3   ar
     5     3     4   ar
     6     4     5   ar
     7     5     6   ar
     8     6     7   ar
     9     7     8   ar
    10     8     9    1
    11     8    10   ar
    12    10    11   ar
    13    11    12   ar
    14    12    19    1
    15    19    20    1
    16    20    21    1
    17    21    22    1
    18    22    23    1
    19    23    27    1
    20    27    28   ar
    21    28    29   ar
    22    29    30   ar
    23    30    31    1
    24    30    32   ar
    25    32    33   ar
    26    23    24    1
    27    24    25    1
    28    25    26    1
    29    12    13   ar
    30    13    14   ar
    31     6     1   ar
    32    14    10   ar
    33    14     5   ar
    34    25    20    1
    35    33    27   ar
    36     9    15    1
    37     9    16    1
@<TRIPOS>MOLECULE
*****
 33 37 0 0 0
SMALL
GASTEIGER

@<TRIPOS>ATOM
      1 C         138.4274  139.6416  169.3262 C.ar    1  UNL1        0.1564
      2 C         137.7121  138.9877  168.1814 C.ar    1  UNL1        0.0385
      3 C         138.2491  139.1207  166.7872 C.ar    1  UNL1        0.0033
      4 C         139.5014  139.9076  166.5377 C.ar    1  UNL1        0.0048
      5 C         140.2168  140.5615  167.6825 C.ar    1  UNL1        0.0567
      6 C         139.6798  140.4285  169.0767 C.ar    1  UNL1        0.1209
      7 N         140.3952  141.0825  170.2216 N.ar    1  UNL1       -0.2108
      8 C         141.6476  141.8695  169.9721 C.ar    1  UNL1        0.2163
      9 N         142.3630  142.5234  171.1169 N.pl3   1  UNL1       -0.3274
     10 N         142.1846  142.0025  168.5778 N.ar    1  UNL1       -0.1813
     11 N         143.3882  142.7097  168.0290 N.ar    1  UNL1       -0.1451
     12 C         143.4167  142.4928  166.5451 C.ar    1  UNL1        0.1769
     13 N         142.2306  141.6516  166.1767 N.ar    1  UNL1       -0.2086
     14 C         141.4692  141.3485  167.4330 C.ar    1  UNL1        0.1695
     15 H         142.0106  142.4362  172.0320 H       1  UNL1        0.1452
     16 H         143.1850  143.0399  170.9532 H       1  UNL1        0.1452
     17 C         136.6021  138.7792  170.9616 C.3     1  UNL1        0.2525
     18 O         137.8905  139.5086  170.7205 O.3     1  UNL1       -0.4699
     19 C         144.4498  143.0240  165.5960 C.3     1  UNL1        0.1408
     20 N         144.3803  142.6739  164.1391 N.3     1  UNL1       -0.2644
     21 C         144.8408  141.3259  163.6689 C.3     1  UNL1        0.0941
     22 C         144.7714  140.9758  162.2120 C.3     1  UNL1        0.1081
     23 N         144.2414  141.9737  161.2253 N.pl3   1  UNL1       -0.3047
     24 C         143.7810  143.3216  161.6955 C.3     1  UNL1        0.1067
     25 C         143.8505  143.6717  163.1524 C.3     1  UNL1        0.0777
     26 C         143.3900  145.0195  163.6227 C.3     1  UNL1        0.0192
     27 C         144.1720  141.6236  159.7684 C.ar    1  UNL1        0.0481
     28 C         144.7639  142.5479  158.7459 C.ar    1  UNL1        0.0168
     29 C         144.6945  142.1978  157.2889 C.ar    1  UNL1        0.0309
     30 C         144.0331  140.9234  156.8545 C.ar    1  UNL1        0.1402
     31 F         143.9636  140.5733  155.3976 F       1  UNL1       -0.2042
     32 C         143.4412  139.9992  157.8770 C.ar    1  UNL1        0.0309
     33 C         143.5107  140.3493  159.3339 C.ar    1  UNL1        0.0168
@<TRIPOS>BOND
     1    17    18    1
     2    18     1    1
     3     1     2   ar
     4     2     3   ar
     5     3     4   ar
     6     4     5   ar
     7     5     6   ar
     8     6     7   ar
     9     7     8   ar
    10     8     9    1
    11     8    10   ar
    12    10    11   ar
    13    11    12   ar
    14    12    19    1
    15    19    20    1
    16    20    21    1
    17    21    22    1
    18    22    23    1
    19    23    27    1
    20    27    28   ar
    21    28    29   ar
    22    29    30   ar
    23    30    31    1
    24    30    32   ar
    25    32    33   ar
    26    23    24    1
    27    24    25    1
    28    25    26    1
    29    12    13   ar
    30    13    14   ar
    31     6     1   ar
    32    14    10   ar
    33    14     5   ar
    34    25    20    1
    35    33    27   ar
    36     9    15    1
    37     9    16    1
@<TRIPOS>MOLECULE
*****
 33 37 0 0 0
SMALL
GASTEIGER

@<TRIPOS>ATOM
      1 C         139.8158  144.7217  157.2482 C.ar    1  UNL1        0.1564
      2 C         140.8329  145.4861  158.0427 C.ar    1  UNL1        0.0385
      3 C         141.2745  144.9773  159.3829 C.ar    1  UNL1        0.0033
      4 C         140.6991  143.7041  159.9286 C.ar    1  UNL1        0.0048
      5 C         139.6821  142.9397  159.1341 C.ar    1  UNL1        0.0567
      6 C         139.2404  143.4485  157.7939 C.ar    1  UNL1        0.1209
      7 N         138.2233  142.6840  156.9994 N.ar    1  UNL1       -0.2108
      8 C         137.6479  141.4108  157.5451 C.ar    1  UNL1        0.2163
      9 N         136.6308  140.6464  156.7506 N.pl3   1  UNL1       -0.3274
     10 N         138.0896  140.9020  158.8853 N.ar    1  UNL1       -0.1813
     11 N         137.7019  139.6873  159.6753 N.ar    1  UNL1       -0.1451
     12 C         138.4793  139.7010  160.9580 C.ar    1  UNL1        0.1769
     13 N         139.3475  140.9242  160.9608 N.ar    1  UNL1       -0.2086
     14 C         139.1066  141.6664  159.6798 C.ar    1  UNL1        0.1695
     15 H         136.3409  140.9803  155.8710 H       1  UNL1        0.1452
     16 H         136.2532  139.8107  157.1088 H       1  UNL1        0.1452
     17 C         140.0752  146.3991  155.2812 C.3     1  UNL1        0.2525
     18 O         139.3742  145.2305  155.9081 O.3     1  UNL1       -0.4699
     19 C         138.4021  138.6721  162.0469 C.3     1  UNL1        0.1408
     20 N         138.9230  138.9898  163.4172 N.3     1  UNL1       -0.2644
     21 C         138.2368  140.0244  164.2591 C.3     1  UNL1        0.0941
     22 C         138.7578  140.3421  165.6294 C.3     1  UNL1        0.1081
     23 N         139.9648  139.6251  166.1578 N.pl3   1  UNL1       -0.3047
     24 C         140.6509  138.5906  165.3158 C.3     1  UNL1        0.1067
     25 C         140.1300  138.2729  163.9455 C.3     1  UNL1        0.0777
     26 C         140.8161  137.2384  163.1035 C.3     1  UNL1        0.0192
     27 C         140.4857  139.9428  167.5281 C.ar    1  UNL1        0.0481
     28 C         141.9644  140.0035  167.7729 C.ar    1  UNL1        0.0168
     29 C         142.4854  140.3212  169.1432 C.ar    1  UNL1        0.0309
     30 C         141.5276  140.5781  170.2687 C.ar    1  UNL1        0.1402
     31 F         142.0485  140.8958  171.6390 F       1  UNL1       -0.2042
     32 C         140.0490  140.5174  170.0239 C.ar    1  UNL1        0.0309
     33 C         139.5281  140.1997  168.6536 C.ar    1  UNL1        0.0168
@<TRIPOS>BOND
     1    17    18    1
     2    18     1    1
     3     1     2   ar
     4     2     3   ar
     5     3     4   ar
     6     4     5   ar
     7     5     6   ar
     8     6     7   ar
     9     7     8   ar
    10     8     9    1
    11     8    10   ar
    12    10    11   ar
    13    11    12   ar
    14    12    19    1
    15    19    20    1
    16    20    21    1
    17    21    22    1
    18    22    23    1
    19    23    27    1
    20    27    28   ar
    21    28    29   ar
    22    29    30   ar
    23    30    31    1
    24    30    32   ar
    25    32    33   ar
    26    23    24    1
    27    24    25    1
    28    25    26    1
    29    12    13   ar
    30    13    14   ar
    31     6     1   ar
    32    14    10   ar
    33    14     5   ar
    34    25    20    1
    35    33    27   ar
    36     9    15    1
    37     9    16    1
@<TRIPOS>MOLECULE
*****
 33 37 0 0 0
SMALL
GASTEIGER

@<TRIPOS>ATOM
      1 C         140.6004  140.8891  169.3081 C.ar    1  UNL1        0.1564
      2 C         141.2773  139.8365  170.1349 C.ar    1  UNL1        0.0385
      3 C         142.3915  139.0224  169.5469 C.ar    1  UNL1        0.0033
      4 C         142.8287  139.2608  168.1321 C.ar    1  UNL1        0.0048
      5 C         142.1518  140.3135  167.3052 C.ar    1  UNL1        0.0567
      6 C         141.0376  141.1276  167.8932 C.ar    1  UNL1        0.1209
      7 N         140.3606  142.1802  167.0663 N.ar    1  UNL1       -0.2108
      8 C         140.7979  142.4187  165.6515 C.ar    1  UNL1        0.2163
      9 N         140.1209  143.4714  164.8245 N.pl3   1  UNL1       -0.3274
     10 N         141.9121  141.6046  165.0634 N.ar    1  UNL1       -0.1813
     11 N         142.5548  141.6138  163.7081 N.ar    1  UNL1       -0.1451
     12 C         143.6289  140.5669  163.6974 C.ar    1  UNL1        0.1769
     13 N         143.6501  139.9106  165.0461 N.ar    1  UNL1       -0.2086
     14 C         142.5890  140.5520  165.8903 C.ar    1  UNL1        0.1695
     15 H         139.3897  144.0057  165.2105 H       1  UNL1        0.1452
     16 H         140.4079  143.6279  163.8959 H       1  UNL1        0.1452
     17 C         139.7986  142.9095  170.7311 C.3     1  UNL1        0.2525
     18 O         139.4862  141.7032  169.8961 O.3     1  UNL1       -0.4699
     19 C         144.5247  140.2345  162.5410 C.3     1  UNL1        0.1408
     20 N         143.9643  139.5455  161.3321 N.3     1  UNL1       -0.2644
     21 C         143.6458  138.0806  161.3840 C.3     1  UNL1        0.0941
     22 C         143.0855  137.3916  160.1752 C.3     1  UNL1        0.1081
     23 N         142.8436  138.1676  158.9144 N.pl3   1  UNL1       -0.3047
     24 C         143.1621  139.6324  158.8625 C.3     1  UNL1        0.1067
     25 C         143.7224  140.3214  160.0714 C.3     1  UNL1        0.0777
     26 C         144.0409  141.7862  160.0195 C.3     1  UNL1        0.0192
     27 C         142.2833  137.4786  157.7055 C.ar    1  UNL1        0.0481
     28 C         142.8831  136.1876  157.2327 C.ar    1  UNL1        0.0168
     29 C         142.3227  135.4986  156.0238 C.ar    1  UNL1        0.0309
     30 C         141.1626  136.1007  155.2878 C.ar    1  UNL1        0.1402
     31 F         140.6022  135.4117  154.0790 F       1  UNL1       -0.2042
     32 C         140.5628  137.3916  155.7607 C.ar    1  UNL1        0.0309
     33 C         141.1232  138.0806  156.9696 C.ar    1  UNL1        0.0168
@<TRIPOS>BOND
     1    17    18    1
     2    18     1    1
     3     1     2   ar
     4     2     3   ar
     5     3     4   ar
     6     4     5   ar
     7     5     6   ar
     8     6     7   ar
     9     7     8   ar
    10     8     9    1
    11     8    10   ar
    12    10    11   ar
    13    11    12   ar
    14    12    19    1
    15    19    20    1
    16    20    21    1
    17    21    22    1
    18    22    23    1
    19    23    27    1
    20    27    28   ar
    21    28    29   ar
    22    29    30   ar
    23    30    31    1
    24    30    32   ar
    25    32    33   ar
    26    23    24    1
    27    24    25    1
    28    25    26    1
    29    12    13   ar
    30    13    14   ar
    31     6     1   ar
    32    14    10   ar
    33    14     5   ar
    34    25    20    1
    35    33    27   ar
    36     9    15    1
    37     9    16    1
@<TRIPOS>MOLECULE
*****
 33 37 0 0 0
SMALL
GASTEIGER

@<TRIPOS>ATOM
      1 C         140.6480  138.9480  165.0198 C.ar    1  UNL1        0.1564
      2 C         142.0801  138.7783  165.4322 C.ar    1  UNL1        0.0385
      3 C         143.1359  138.5371  164.3944 C.ar    1  UNL1        0.0033
      4 C         142.7597  138.4657  162.9442 C.ar    1  UNL1        0.0048
      5 C         141.3275  138.6354  162.5318 C.ar    1  UNL1        0.0567
      6 C         140.2717  138.8766  163.5696 C.ar    1  UNL1        0.1209
      7 N         138.8395  139.0463  163.1570 N.ar    1  UNL1       -0.2108
      8 C         138.4632  138.9749  161.7068 C.ar    1  UNL1        0.2163
      9 N         137.0310  139.1446  161.2943 N.pl3   1  UNL1       -0.3274
     10 N         139.5191  138.7337  160.6690 N.ar    1  UNL1       -0.1813
     11 N         139.4496  138.6145  159.1754 N.ar    1  UNL1       -0.1451
     12 C         140.8389  138.3711  158.6647 C.ar    1  UNL1        0.1769
     13 N         141.7669  138.3399  159.8428 N.ar    1  UNL1       -0.2086
     14 C         140.9512  138.5640  161.0814 C.ar    1  UNL1        0.1695
     15 H         136.3380  139.3029  161.9754 H       1  UNL1        0.1452
     16 H         136.7841  139.0978  160.3424 H       1  UNL1        0.1452
     17 C         139.2620  140.5900  166.4802 C.3     1  UNL1        0.2525
     18 O         139.5921  139.1892  166.0576 O.3     1  UNL1       -0.4699
     19 C         141.2312  138.1906  157.2282 C.3     1  UNL1        0.1408
     20 N         141.7554  136.8674  156.7545 N.3     1  UNL1       -0.2644
     21 C         143.0228  136.3120  157.3335 C.3     1  UNL1        0.0941
     22 C         143.5469  134.9888  156.8598 C.3     1  UNL1        0.1081
     23 N         142.8037  134.2210  155.8070 N.pl3   1  UNL1       -0.3047
     24 C         141.5364  134.7765  155.2280 C.3     1  UNL1        0.1067
     25 C         141.0122  136.0997  155.7018 C.3     1  UNL1        0.0777
     26 C         139.7449  136.6552  155.1228 C.3     1  UNL1        0.0192
     27 C         143.3278  132.8978  155.3333 C.ar    1  UNL1        0.0481
     28 C         142.8421  132.3192  154.0374 C.ar    1  UNL1        0.0168
     29 C         143.3662  130.9960  153.5637 C.ar    1  UNL1        0.0309
     30 C         144.3761  130.2514  154.3858 C.ar    1  UNL1        0.1402
     31 F         144.9003  128.9282  153.9121 F       1  UNL1       -0.2042
     32 C         144.8618  130.8301  155.6816 C.ar    1  UNL1        0.0309
     33 C         144.3377  132.1533  156.1554 C.ar    1  UNL1        0.0168
@<TRIPOS>BOND
     1    17    18    1
     2    18     1    1
     3     1     2   ar
     4     2     3   ar
     5     3     4   ar
     6     4     5   ar
     7     5     6   ar
     8     6     7   ar
     9     7     8   ar
    10     8     9    1
    11     8    10   ar
    12    10    11   ar
    13    11    12   ar
    14    12    19    1
    15    19    20    1
    16    20    21    1
    17    21    22    1
    18    22    23    1
    19    23    27    1
    20    27    28   ar
    21    28    29   ar
    22    29    30   ar
    23    30    31    1
    24    30    32   ar
    25    32    33   ar
    26    23    24    1
    27    24    25    1
    28    25    26    1
    29    12    13   ar
    30    13    14   ar
    31     6     1   ar
    32    14    10   ar
    33    14     5   ar
    34    25    20    1
    35    33    27   ar
    36     9    15    1
    37     9    16    1
@<TRIPOS>MOLECULE
*****
 33 37 0 0 0
SMALL
GASTEIGER

@<TRIPOS>ATOM
      1 C         140.5597  146.2048  156.1586 C.ar    1  UNL1        0.1564
      2 C         141.3399  145.7112  154.9765 C.ar    1  UNL1        0.0385
      3 C         142.3778  144.6432  155.1558 C.ar    1  UNL1        0.0033
      4 C         142.6356  144.0689  156.5173 C.ar    1  UNL1        0.0048
      5 C         141.8554  144.5626  157.6994 C.ar    1  UNL1        0.0567
      6 C         140.8174  145.6305  157.5201 C.ar    1  UNL1        0.1209
      7 N         140.0372  146.1241  158.7024 N.ar    1  UNL1       -0.2108
      8 C         140.2950  145.5498  160.0639 C.ar    1  UNL1        0.2163
      9 N         139.5147  146.0434  161.2461 N.pl3   1  UNL1       -0.3274
     10 N         141.3329  144.4819  160.2432 N.ar    1  UNL1       -0.1813
     11 N         141.8033  143.7327  161.4545 N.ar    1  UNL1       -0.1451
     12 C         142.8742  142.7760  161.0210 C.ar    1  UNL1        0.1769
     13 N         143.0657  142.9340  159.5417 N.ar    1  UNL1       -0.2086
     14 C         142.1131  143.9882  159.0610 C.ar    1  UNL1        0.1695
     15 H         138.8335  146.7443  161.1284 H       1  UNL1        0.1452
     16 H         139.6839  145.6665  162.1397 H       1  UNL1        0.1452
     17 C         139.5077  148.1028  154.7300 C.3     1  UNL1        0.2525
     18 O         139.5217  147.2727  155.9793 O.3     1  UNL1       -0.4699
     19 C         143.6223  141.8278  161.9106 C.3     1  UNL1        0.1408
     20 N         143.0872  141.4966  163.2722 N.3     1  UNL1       -0.2644
     21 C         141.9879  140.4868  163.4208 C.3     1  UNL1        0.0941
     22 C         141.4528  140.1555  164.7824 C.3     1  UNL1        0.1081
     23 N         142.0169  140.8341  165.9954 N.pl3   1  UNL1       -0.3047
     24 C         143.1161  141.8439  165.8468 C.3     1  UNL1        0.1067
     25 C         143.6512  142.1751  164.4852 C.3     1  UNL1        0.0777
     26 C         144.7504  143.1849  164.3366 C.3     1  UNL1        0.0192
     27 C         141.4818  140.5029  167.3570 C.ar    1  UNL1        0.0481
     28 C         140.0528  140.8083  167.6959 C.ar    1  UNL1        0.0168
     29 C         139.5176  140.4771  169.0575 C.ar    1  UNL1        0.0309
     30 C         140.4115  139.8405  170.0802 C.ar    1  UNL1        0.1402
     31 F         139.8764  139.5093  171.4417 F       1  UNL1       -0.2042
     32 C         141.8404  139.5351  169.7412 C.ar    1  UNL1        0.0309
     33 C         142.3756  139.8664  168.3796 C.ar    1  UNL1        0.0168
@<TRIPOS>BOND
     1    17    18    1
     2    18     1    1
     3     1     2   ar
     4     2     3   ar
     5     3     4   ar
     6     4     5   ar
     7     5     6   ar
     8     6     7   ar
     9     7     8   ar
    10     8     9    1
    11     8    10   ar
    12    10    11   ar
    13    11    12   ar
    14    12    19    1
    15    19    20    1
    16    20    21    1
    17    21    22    1
    18    22    23    1
    19    23    27    1
    20    27    28   ar
    21    28    29   ar
    22    29    30   ar
    23    30    31    1
    24    30    32   ar
    25    32    33   ar
    26    23    24    1
    27    24    25    1
    28    25    26    1
    29    12    13   ar
    30    13    14   ar
    31     6     1   ar
    32    14    10   ar
    33    14     5   ar
    34    25    20    1
    35    33    27   ar
    36     9    15    1
    37     9    16    1
@<TRIPOS>MOLECULE
*****
 33 37 0 0 0
SMALL
GASTEIGER

@<TRIPOS>ATOM
      1 C         138.6177  144.2391  162.8099 C.ar    1  UNL1        0.1564
      2 C         139.3871  145.4981  162.5400 C.ar    1  UNL1        0.0385
      3 C         140.2019  145.6251  161.2870 C.ar    1  UNL1        0.0033
      4 C         140.2473  144.4931  160.3040 C.ar    1  UNL1        0.0048
      5 C         139.4779  143.2341  160.5739 C.ar    1  UNL1        0.0567
      6 C         138.6631  143.1071  161.8268 C.ar    1  UNL1        0.1209
      7 N         137.8937  141.8480  162.0967 N.ar    1  UNL1       -0.2108
      8 C         137.9391  140.7160  161.1137 C.ar    1  UNL1        0.2163
      9 N         137.1697  139.4569  161.3835 N.pl3   1  UNL1       -0.3274
     10 N         138.7539  140.8430  159.8607 N.ar    1  UNL1       -0.1813
     11 N         138.9885  139.9021  158.7163 N.ar    1  UNL1       -0.1451
     12 C         139.9029  140.5796  157.7391 C.ar    1  UNL1        0.1769
     13 N         140.2334  141.9393  158.2796 N.ar    1  UNL1       -0.2086
     14 C         139.5233  142.1020  159.5908 C.ar    1  UNL1        0.1695
     15 H         136.6349  139.3735  162.2059 H       1  UNL1        0.1452
     16 H         137.1995  138.7139  160.7383 H       1  UNL1        0.1452
     17 C         138.2801  144.7469  165.3354 C.3     1  UNL1        0.2525
     18 O         137.8029  144.1121  164.0629 O.3     1  UNL1       -0.4699
     19 C         140.3995  139.9994  156.4480 C.3     1  UNL1        0.1408
     20 N         140.9369  138.5994  156.4126 N.3     1  UNL1       -0.2644
     21 C         142.2782  138.2955  157.0115 C.3     1  UNL1        0.0941
     22 C         142.8155  136.8955  156.9761 C.3     1  UNL1        0.1081
     23 N         142.0116  135.7994  156.3416 N.pl3   1  UNL1       -0.3047
     24 C         140.6704  136.1034  155.7427 C.3     1  UNL1        0.1067
     25 C         140.1330  137.5034  155.7782 C.3     1  UNL1        0.0777
     26 C         138.7918  137.8073  155.1793 C.3     1  UNL1        0.0192
     27 C         142.5489  134.3994  156.3062 C.ar    1  UNL1        0.0481
     28 C         143.8226  134.0665  157.0254 C.ar    1  UNL1        0.0168
     29 C         144.3599  132.6665  156.9899 C.ar    1  UNL1        0.0309
     30 C         143.6236  131.5994  156.2353 C.ar    1  UNL1        0.1402
     31 F         144.1610  130.1994  156.1998 F       1  UNL1       -0.2042
     32 C         142.3501  131.9324  155.5161 C.ar    1  UNL1        0.0309
     33 C         141.8128  133.3324  155.5516 C.ar    1  UNL1        0.0168
@<TRIPOS>BOND
     1    17    18    1
     2    18     1    1
     3     1     2   ar
     4     2     3   ar
     5     3     4   ar
     6     4     5   ar
     7     5     6   ar
     8     6     7   ar
     9     7     8   ar
    10     8     9    1
    11     8    10   ar
    12    10    11   ar
    13    11    12   ar
    14    12    19    1
    15    19    20    1
    16    20    21    1
    17    21    22    1
    18    22    23    1
    19    23    27    1
    20    27    28   ar
    21    28    29   ar
    22    29    30   ar
    23    30    31    1
    24    30    32   ar
    25    32    33   ar
    26    23    24    1
    27    24    25    1
    28    25    26    1
    29    12    13   ar
    30    13    14   ar
    31     6     1   ar
    32    14    10   ar
    33    14     5   ar
    34    25    20    1
    35    33    27   ar
    36     9    15    1
    37     9    16    1
