@<TRIPOS>MOLECULE
*****
 26 28 0 0 0
SMALL
GASTEIGER

@<TRIPOS>ATOM
      1 C         142.6841  142.8557  164.7442 C.ar    1  UNL1        0.0730
      2 C         142.2376  142.3867  166.0972 C.ar    1  UNL1        0.0302
      3 C         140.8571  142.7116  166.5856 C.ar    1  UNL1        0.0520
      4 C         139.9231  143.5055  165.7210 C.ar    1  UNL1        0.0486
      5 C         140.3697  143.9745  164.3681 C.ar    1  UNL1        0.1301
      6 N         141.7502  143.6496  163.8796 N.ar    1  UNL1       -0.2342
      7 N         140.4104  142.2426  167.9386 N.pl3   1  UNL1       -0.3027
      8 C         139.9553  140.8261  168.1288 C.3     1  UNL1        0.1231
      9 C         139.5087  140.3571  169.4818 C.3     1  UNL1        0.1636
     10 O         139.5172  141.3046  170.6446 O.3     1  UNL1       -0.3501
     11 C         139.9724  142.7212  170.4544 C.3     1  UNL1        0.1636
     12 C         140.4190  143.1902  169.1014 C.3     1  UNL1        0.1231
     13 N         139.4357  144.7684  163.5035 N.pl3   1  UNL1       -0.3057
     14 H         139.7632  145.5657  163.0278 H       1  UNL1        0.1492
     15 C         138.0028  144.3476  163.3638 C.3     1  UNL1        0.1959
     16 C         137.6699  142.9783  162.8498 C.1     1  UNL1        0.0952
     17 N         137.3371  141.6090  162.3357 N.1     1  UNL1       -0.1941
     18 C         144.0647  142.5308  164.2557 C.3     1  UNL1        0.1123
     19 S         144.5811  141.1255  164.3467 S.3     1  UNL1       -0.0504
     20 C         143.0789  137.5857  160.7281 C.3     1  UNL1        0.0551
     21 C         143.1588  138.3844  161.9952 C.ar    1  UNL1        0.0932
     22 N         144.1240  139.4978  162.2763 N.ar    1  UNL1       -0.2074
     23 C         143.8493  140.0115  163.6586 C.ar    1  UNL1        0.2584
     24 O         142.7143  139.2157  164.2318 O.2     1  UNL1       -0.4348
     25 C         142.2876  138.2101  163.2038 C.ar    1  UNL1        0.1391
     26 C         141.1836  137.2065  163.3575 C.3     1  UNL1        0.0739
@<TRIPOS>BOND
     1    20    21    1
     2    21    22   ar
     3    22    23   ar
     4    23    19    1
     5    19    18    1
     6    18     1    1
     7     1     2   ar
     8     2     3   ar
     9     3     7    1
    10     7     8    1
    11     8     9    1
    12     9    10    1
    13    10    11    1
    14    11    12    1
    15     3     4   ar
    16     4     5   ar
    17     5    13    1
    18    13    15    1
    19    15    16    1
    20    16    17    3
    21     5     6   ar
    22    23    24   ar
    23    24    25   ar
    24    25    26    1
    25    25    21   ar
    26     6     1   ar
    27    12     7    1
    28    13    14    1
@<TRIPOS>MOLECULE
*****
 26 28 0 0 0
SMALL
GASTEIGER

@<TRIPOS>ATOM
      1 C         139.9045  143.8875  164.9892 C.ar    1  UNL1        0.0730
      2 C         141.1321  143.5946  164.1785 C.ar    1  UNL1        0.0302
      3 C         142.1697  142.6475  164.7043 C.ar    1  UNL1        0.0520
      4 C         141.9797  141.9934  166.0407 C.ar    1  UNL1        0.0486
      5 C         140.7521  142.2863  166.8514 C.ar    1  UNL1        0.1301
      6 N         139.7145  143.2333  166.3256 N.ar    1  UNL1       -0.2342
      7 N         143.3974  142.3546  163.8936 N.pl3   1  UNL1       -0.3027
      8 C         144.6529  141.8947  164.5735 C.3     1  UNL1        0.1231
      9 C         145.8805  141.6017  163.7629 C.3     1  UNL1        0.1636
     10 O         145.8527  141.7687  162.2724 O.3     1  UNL1       -0.3501
     11 C         144.5972  142.2287  161.5926 C.3     1  UNL1        0.1636
     12 C         143.3695  142.5216  162.4033 C.3     1  UNL1        0.1231
     13 N         140.5621  141.6322  168.1878 N.pl3   1  UNL1       -0.3057
     14 H         140.0831  140.7745  168.2524 H       1  UNL1        0.1492
     15 C         141.1021  142.2847  169.4257 C.3     1  UNL1        0.1959
     16 C         140.5565  143.6078  169.8750 C.1     1  UNL1        0.0952
     17 N         140.0109  144.9308  170.3243 N.1     1  UNL1       -0.1941
     18 C         138.8669  144.8345  164.4634 C.3     1  UNL1        0.1123
     19 S         137.6650  144.3038  163.7397 S.3     1  UNL1       -0.0504
     20 C         137.7243  139.4677  161.6207 C.3     1  UNL1        0.0551
     21 C         137.8430  140.9537  161.7875 C.ar    1  UNL1        0.0932
     22 N         137.5732  141.7240  163.0462 N.ar    1  UNL1       -0.2074
     23 C         137.8157  143.1766  162.7615 C.ar    1  UNL1        0.2584
     24 O         138.2354  143.3042  161.3271 O.2     1  UNL1       -0.4348
     25 C         138.2522  141.9303  160.7251 C.ar    1  UNL1        0.1391
     26 C         138.6147  141.5925  159.3094 C.3     1  UNL1        0.0739
@<TRIPOS>BOND
     1    20    21    1
     2    21    22   ar
     3    22    23   ar
     4    23    19    1
     5    19    18    1
     6    18     1    1
     7     1     2   ar
     8     2     3   ar
     9     3     7    1
    10     7     8    1
    11     8     9    1
    12     9    10    1
    13    10    11    1
    14    11    12    1
    15     3     4   ar
    16     4     5   ar
    17     5    13    1
    18    13    15    1
    19    15    16    1
    20    16    17    3
    21     5     6   ar
    22    23    24   ar
    23    24    25   ar
    24    25    26    1
    25    25    21   ar
    26     6     1   ar
    27    12     7    1
    28    13    14    1
@<TRIPOS>MOLECULE
*****
 26 28 0 0 0
SMALL
GASTEIGER

@<TRIPOS>ATOM
      1 C         142.9956  141.2234  164.9034 C.ar    1  UNL1        0.0730
      2 C         142.9231  141.6742  166.3322 C.ar    1  UNL1        0.0302
      3 C         142.1562  140.8651  167.3358 C.ar    1  UNL1        0.0520
      4 C         141.4619  139.6053  166.9107 C.ar    1  UNL1        0.0486
      5 C         141.5345  139.1545  165.4819 C.ar    1  UNL1        0.1301
      6 N         142.3013  139.9636  164.4783 N.ar    1  UNL1       -0.2342
      7 N         142.0837  141.3159  168.7647 N.pl3   1  UNL1       -0.3027
      8 C         142.8563  142.5217  169.2109 C.3     1  UNL1        0.1231
      9 C         142.7838  142.9725  170.6397 C.3     1  UNL1        0.1636
     10 O         141.9385  142.2175  171.6224 O.3     1  UNL1       -0.3501
     11 C         141.1659  141.0117  171.1762 C.3     1  UNL1        0.1636
     12 C         141.2385  140.5609  169.7473 C.3     1  UNL1        0.1231
     13 N         140.8402  137.8947  165.0567 N.pl3   1  UNL1       -0.3057
     14 H         141.3475  137.0543  164.9818 H       1  UNL1        0.1492
     15 C         139.3729  137.9152  164.7458 C.3     1  UNL1        0.1959
     16 C         138.3754  138.1151  165.8480 C.1     1  UNL1        0.0952
     17 N         137.3778  138.3149  166.9503 N.1     1  UNL1       -0.1941
     18 C         143.7625  142.0325  163.8997 C.3     1  UNL1        0.1123
     19 S         143.0995  143.1801  163.1974 S.3     1  UNL1       -0.0504
     20 C         138.5816  144.9085  165.3146 C.3     1  UNL1        0.0551
     21 C         139.5652  144.2493  164.3937 C.ar    1  UNL1        0.0932
     22 N         141.0544  144.2177  164.5707 N.ar    1  UNL1       -0.2074
     23 C         141.6418  143.4548  163.4205 C.ar    1  UNL1        0.2584
     24 O         140.5157  143.0149  162.5326 O.2     1  UNL1       -0.4348
     25 C         139.2323  143.5059  163.1340 C.ar    1  UNL1        0.1391
     26 C         137.8574  143.2913  162.5742 C.3     1  UNL1        0.0739
@<TRIPOS>BOND
     1    20    21    1
     2    21    22   ar
     3    22    23   ar
     4    23    19    1
     5    19    18    1
     6    18     1    1
     7     1     2   ar
     8     2     3   ar
     9     3     7    1
    10     7     8    1
    11     8     9    1
    12     9    10    1
    13    10    11    1
    14    11    12    1
    15     3     4   ar
    16     4     5   ar
    17     5    13    1
    18    13    15    1
    19    15    16    1
    20    16    17    3
    21     5     6   ar
    22    23    24   ar
    23    24    25   ar
    24    25    26    1
    25    25    21   ar
    26     6     1   ar
    27    12     7    1
    28    13    14    1
@<TRIPOS>MOLECULE
*****
 26 28 0 0 0
SMALL
GASTEIGER

@<TRIPOS>ATOM
      1 C         143.6394  141.7103  165.4654 C.ar    1  UNL1        0.0730
      2 C         143.0062  142.1430  166.7545 C.ar    1  UNL1        0.0302
      3 C         142.2283  141.1579  167.5757 C.ar    1  UNL1        0.0520
      4 C         142.0835  139.7402  167.1078 C.ar    1  UNL1        0.0486
      5 C         142.7167  139.3074  165.8187 C.ar    1  UNL1        0.1301
      6 N         143.4946  140.2925  164.9975 N.ar    1  UNL1       -0.2342
      7 N         141.5950  141.5907  168.8648 N.pl3   1  UNL1       -0.3027
      8 C         140.7572  142.8341  168.9086 C.3     1  UNL1        0.1231
      9 C         140.1240  143.2668  170.1976 C.3     1  UNL1        0.1636
     10 O         140.3286  142.4561  171.4430 O.3     1  UNL1       -0.3501
     11 C         141.1664  141.2127  171.3993 C.3     1  UNL1        0.1636
     12 C         141.7996  140.7800  170.1101 C.3     1  UNL1        0.1231
     13 N         142.5719  137.8897  165.3508 N.pl3   1  UNL1       -0.3057
     14 H         143.2950  137.2415  165.5128 H       1  UNL1        0.1492
     15 C         141.3253  137.4593  164.6360 C.3     1  UNL1        0.1959
     16 C         141.2535  137.5383  163.1398 C.1     1  UNL1        0.0952
     17 N         141.1816  137.6173  161.6436 N.1     1  UNL1       -0.1941
     18 C         144.4175  142.6953  164.6441 C.3     1  UNL1        0.1123
     19 S         143.9321  144.1082  164.5091 S.3     1  UNL1       -0.0504
     20 C         138.7877  144.6957  163.4740 C.3     1  UNL1        0.0551
     21 C         140.2794  144.6637  163.3196 C.ar    1  UNL1        0.0932
     22 N         141.2681  144.2875  164.3832 N.ar    1  UNL1       -0.2074
     23 C         142.6440  144.3937  163.7953 C.ar    1  UNL1        0.2584
     24 O         142.5058  144.8356  162.3686 O.2     1  UNL1       -0.4348
     25 C         141.0444  145.0025  162.0745 C.ar    1  UNL1        0.1391
     26 C         140.4520  145.4325  160.7654 C.3     1  UNL1        0.0739
@<TRIPOS>BOND
     1    20    21    1
     2    21    22   ar
     3    22    23   ar
     4    23    19    1
     5    19    18    1
     6    18     1    1
     7     1     2   ar
     8     2     3   ar
     9     3     7    1
    10     7     8    1
    11     8     9    1
    12     9    10    1
    13    10    11    1
    14    11    12    1
    15     3     4   ar
    16     4     5   ar
    17     5    13    1
    18    13    15    1
    19    15    16    1
    20    16    17    3
    21     5     6   ar
    22    23    24   ar
    23    24    25   ar
    24    25    26    1
    25    25    21   ar
    26     6     1   ar
    27    12     7    1
    28    13    14    1
@<TRIPOS>MOLECULE
*****
 26 28 0 0 0
SMALL
GASTEIGER

@<TRIPOS>ATOM
      1 C         142.8874  141.2028  165.3236 C.ar    1  UNL1        0.0730
      2 C         142.5939  141.2048  166.7946 C.ar    1  UNL1        0.0302
      3 C         141.5243  142.1010  167.3447 C.ar    1  UNL1        0.0520
      4 C         140.7481  142.9952  166.4238 C.ar    1  UNL1        0.0486
      5 C         141.0416  142.9932  164.9529 C.ar    1  UNL1        0.1301
      6 N         142.1112  142.0970  164.4027 N.ar    1  UNL1       -0.2342
      7 N         141.2307  142.1030  168.8157 N.pl3   1  UNL1       -0.3027
      8 C         141.9811  141.1820  169.7315 C.3     1  UNL1        0.1231
      9 C         141.6877  141.1840  171.2025 C.3     1  UNL1        0.1636
     10 O         140.6437  142.1070  171.7578 O.3     1  UNL1       -0.3501
     11 C         139.8933  143.0280  170.8420 C.3     1  UNL1        0.1636
     12 C         140.1868  143.0260  169.3709 C.3     1  UNL1        0.1231
     13 N         140.2655  143.8875  164.0320 N.pl3   1  UNL1       -0.3057
     14 H         139.2939  143.7654  163.9305 H       1  UNL1        0.1492
     15 C         140.9697  144.9678  163.2659 C.3     1  UNL1        0.1959
     16 C         140.2121  145.7994  162.2737 C.1     1  UNL1        0.0952
     17 N         139.4544  146.6310  161.2815 N.1     1  UNL1       -0.1941
     18 C         143.9570  140.3065  164.7734 C.3     1  UNL1        0.1123
     19 S         143.5814  139.0530  164.0404 S.3     1  UNL1       -0.0504
     20 C         138.7823  137.9319  162.1447 C.3     1  UNL1        0.0551
     21 C         139.9369  138.1214  163.0833 C.ar    1  UNL1        0.0932
     22 N         141.3100  138.5947  162.7078 N.ar    1  UNL1       -0.2074
     23 C         142.1428  138.6367  163.9547 C.ar    1  UNL1        0.2584
     24 O         141.2846  138.1894  165.1007 O.2     1  UNL1       -0.4348
     25 C         139.9213  137.8709  164.5622 C.ar    1  UNL1        0.1391
     26 C         138.7484  137.3870  165.3621 C.3     1  UNL1        0.0739
@<TRIPOS>BOND
     1    20    21    1
     2    21    22   ar
     3    22    23   ar
     4    23    19    1
     5    19    18    1
     6    18     1    1
     7     1     2   ar
     8     2     3   ar
     9     3     7    1
    10     7     8    1
    11     8     9    1
    12     9    10    1
    13    10    11    1
    14    11    12    1
    15     3     4   ar
    16     4     5   ar
    17     5    13    1
    18    13    15    1
    19    15    16    1
    20    16    17    3
    21     5     6   ar
    22    23    24   ar
    23    24    25   ar
    24    25    26    1
    25    25    21   ar
    26     6     1   ar
    27    12     7    1
    28    13    14    1
@<TRIPOS>MOLECULE
*****
 26 28 0 0 0
SMALL
GASTEIGER

@<TRIPOS>ATOM
      1 C         142.1475  138.9491  165.1460 C.ar    1  UNL1        0.0730
      2 C         141.7621  139.7632  166.3453 C.ar    1  UNL1        0.0302
      3 C         142.5000  141.0307  166.6600 C.ar    1  UNL1        0.0520
      4 C         143.6233  141.4839  165.7752 C.ar    1  UNL1        0.0486
      5 C         144.0086  140.6698  164.5758 C.ar    1  UNL1        0.1301
      6 N         143.2707  139.4023  164.2612 N.ar    1  UNL1       -0.2342
      7 N         142.1147  141.8449  167.8594 N.pl3   1  UNL1       -0.3027
      8 C         140.7387  142.4344  167.9551 C.3     1  UNL1        0.1231
      9 C         140.3534  143.2486  169.1545 C.3     1  UNL1        0.1636
     10 O         141.3441  143.4734  170.2582 O.3     1  UNL1       -0.3501
     11 C         142.7201  142.8839  170.1625 C.3     1  UNL1        0.1636
     12 C         143.1054  142.0697  168.9630 C.3     1  UNL1        0.1231
     13 N         145.1319  141.1230  163.6910 N.pl3   1  UNL1       -0.3057
     14 H         146.0649  140.9451  163.9498 H       1  UNL1        0.1492
     15 C         144.8336  141.8474  162.4118 C.3     1  UNL1        0.1959
     16 C         144.4602  143.2999  162.4419 C.1     1  UNL1        0.0952
     17 N         144.0868  144.7523  162.4720 N.1     1  UNL1       -0.1941
     18 C         141.4095  137.6816  164.8313 C.3     1  UNL1        0.1123
     19 S         139.9096  137.6668  164.8327 S.3     1  UNL1       -0.0504
     20 C         137.3494  141.9796  163.1813 C.3     1  UNL1        0.0551
     21 C         137.9725  140.6155  163.2145 C.ar    1  UNL1        0.0932
     22 N         138.6915  140.0026  164.3797 N.ar    1  UNL1       -0.2074
     23 C         139.1493  138.6331  163.9735 C.ar    1  UNL1        0.2584
     24 O         138.7132  138.3996  162.5574 O.2     1  UNL1       -0.4348
     25 C         137.9860  139.6247  162.0883 C.ar    1  UNL1        0.1391
     26 C         137.3788  139.8241  160.7313 C.3     1  UNL1        0.0739
@<TRIPOS>BOND
     1    20    21    1
     2    21    22   ar
     3    22    23   ar
     4    23    19    1
     5    19    18    1
     6    18     1    1
     7     1     2   ar
     8     2     3   ar
     9     3     7    1
    10     7     8    1
    11     8     9    1
    12     9    10    1
    13    10    11    1
    14    11    12    1
    15     3     4   ar
    16     4     5   ar
    17     5    13    1
    18    13    15    1
    19    15    16    1
    20    16    17    3
    21     5     6   ar
    22    23    24   ar
    23    24    25   ar
    24    25    26    1
    25    25    21   ar
    26     6     1   ar
    27    12     7    1
    28    13    14    1
@<TRIPOS>MOLECULE
*****
 26 28 0 0 0
SMALL
GASTEIGER

@<TRIPOS>ATOM
      1 C         138.7063  143.1991  164.6183 C.ar    1  UNL1        0.0730
      2 C         139.5933  143.4375  165.8042 C.ar    1  UNL1        0.0302
      3 C         140.1905  142.2747  166.5399 C.ar    1  UNL1        0.0520
      4 C         139.9007  140.8735  166.0896 C.ar    1  UNL1        0.0486
      5 C         139.0138  140.6351  164.9037 C.ar    1  UNL1        0.1301
      6 N         138.4166  141.7979  164.1681 N.ar    1  UNL1       -0.2342
      7 N         141.0775  142.5130  167.7258 N.pl3   1  UNL1       -0.3027
      8 C         142.5144  142.0843  167.6859 C.3     1  UNL1        0.1231
      9 C         143.4014  142.3226  168.8718 C.3     1  UNL1        0.1636
     10 O         142.8516  142.9896  170.0977 O.3     1  UNL1       -0.3501
     11 C         141.4147  143.4183  170.1377 C.3     1  UNL1        0.1636
     12 C         140.5277  143.1800  168.9517 C.3     1  UNL1        0.1231
     13 N         138.7240  139.2340  164.4534 N.pl3   1  UNL1       -0.3057
     14 H         138.4409  139.0636  163.5260 H       1  UNL1        0.1492
     15 C         138.8654  138.0924  165.4161 C.3     1  UNL1        0.1959
     16 C         137.8642  137.9125  166.5185 C.1     1  UNL1        0.0952
     17 N         136.8630  137.7326  167.6208 N.1     1  UNL1       -0.1941
     18 C         138.1091  144.3620  163.8826 C.3     1  UNL1        0.1123
     19 S         138.8518  144.9877  162.7395 S.3     1  UNL1       -0.0504
     20 C         144.1193  144.7270  162.9975 C.3     1  UNL1        0.0551
     21 C         142.6972  144.4821  162.5881 C.ar    1  UNL1        0.0932
     22 N         141.4846  145.1419  163.1750 N.ar    1  UNL1       -0.2074
     23 C         140.2760  144.6019  162.4695 C.ar    1  UNL1        0.2584
     24 O         140.7416  143.6083  161.4467 O.2     1  UNL1       -0.4348
     25 C         142.2379  143.5343  161.5200 C.ar    1  UNL1        0.1391
     26 C         143.1201  142.6651  160.6738 C.3     1  UNL1        0.0739
@<TRIPOS>BOND
     1    20    21    1
     2    21    22   ar
     3    22    23   ar
     4    23    19    1
     5    19    18    1
     6    18     1    1
     7     1     2   ar
     8     2     3   ar
     9     3     7    1
    10     7     8    1
    11     8     9    1
    12     9    10    1
    13    10    11    1
    14    11    12    1
    15     3     4   ar
    16     4     5   ar
    17     5    13    1
    18    13    15    1
    19    15    16    1
    20    16    17    3
    21     5     6   ar
    22    23    24   ar
    23    24    25   ar
    24    25    26    1
    25    25    21   ar
    26     6     1   ar
    27    12     7    1
    28    13    14    1
@<TRIPOS>MOLECULE
*****
 26 28 0 0 0
SMALL
GASTEIGER

@<TRIPOS>ATOM
      1 C         143.0421  141.9933  165.3527 C.ar    1  UNL1        0.0730
      2 C         142.7283  142.1968  166.8053 C.ar    1  UNL1        0.0302
      3 C         141.5478  141.5063  167.4214 C.ar    1  UNL1        0.0520
      4 C         140.6811  140.6123  166.5850 C.ar    1  UNL1        0.0486
      5 C         140.9949  140.4088  165.1324 C.ar    1  UNL1        0.1301
      6 N         142.1754  141.0992  164.5162 N.ar    1  UNL1       -0.2342
      7 N         141.2339  141.7098  168.8741 N.pl3   1  UNL1       -0.3027
      8 C         140.2049  142.7210  169.2845 C.3     1  UNL1        0.1231
      9 C         139.8910  142.9246  170.7371 C.3     1  UNL1        0.1636
     10 O         140.6062  142.1168  171.7793 O.3     1  UNL1       -0.3501
     11 C         141.6353  141.1056  171.3689 C.3     1  UNL1        0.1636
     12 C         141.9491  140.9021  169.9162 C.3     1  UNL1        0.1231
     13 N         140.1283  139.5147  164.2959 N.pl3   1  UNL1       -0.3057
     14 H         140.5396  138.8725  163.6734 H       1  UNL1        0.1492
     15 C         138.6349  139.5993  164.4079 C.3     1  UNL1        0.1959
     16 C         137.8764  140.5978  163.5847 C.1     1  UNL1        0.0952
     17 N         137.1179  141.5963  162.7615 N.1     1  UNL1       -0.1941
     18 C         144.2226  142.6838  164.7364 C.3     1  UNL1        0.1123
     19 S         144.0765  144.0713  164.1858 S.3     1  UNL1       -0.0504
     20 C         141.1716  144.9059  159.8562 C.3     1  UNL1        0.0551
     21 C         141.5912  144.7858  161.2912 C.ar    1  UNL1        0.0932
     22 N         142.9535  144.3936  161.7816 N.ar    1  UNL1       -0.2074
     23 C         142.9265  144.4022  163.2814 C.ar    1  UNL1        0.2584
     24 O         141.5475  144.7997  163.7179 O.2     1  UNL1       -0.4348
     25 C         140.7223  145.0368  162.4879 C.ar    1  UNL1        0.1391
     26 C         139.2813  145.4519  162.4596 C.3     1  UNL1        0.0739
@<TRIPOS>BOND
     1    20    21    1
     2    21    22   ar
     3    22    23   ar
     4    23    19    1
     5    19    18    1
     6    18     1    1
     7     1     2   ar
     8     2     3   ar
     9     3     7    1
    10     7     8    1
    11     8     9    1
    12     9    10    1
    13    10    11    1
    14    11    12    1
    15     3     4   ar
    16     4     5   ar
    17     5    13    1
    18    13    15    1
    19    15    16    1
    20    16    17    3
    21     5     6   ar
    22    23    24   ar
    23    24    25   ar
    24    25    26    1
    25    25    21   ar
    26     6     1   ar
    27    12     7    1
    28    13    14    1
@<TRIPOS>MOLECULE
*****
 26 28 0 0 0
SMALL
GASTEIGER

@<TRIPOS>ATOM
      1 C         140.1326  144.1440  164.3768 C.ar    1  UNL1        0.0730
      2 C         139.7427  143.5846  165.7129 C.ar    1  UNL1        0.0302
      3 C         140.7442  142.8204  166.5271 C.ar    1  UNL1        0.0520
      4 C         142.1355  142.6156  166.0053 C.ar    1  UNL1        0.0486
      5 C         142.5254  143.1750  164.6693 C.ar    1  UNL1        0.1301
      6 N         141.5239  143.9392  163.8550 N.ar    1  UNL1       -0.2342
      7 N         140.3543  142.2610  167.8633 N.pl3   1  UNL1       -0.3027
      8 C         140.4319  143.1227  169.0886 C.3     1  UNL1        0.1231
      9 C         140.0421  142.5633  170.4247 C.3     1  UNL1        0.1636
     10 O         139.5747  141.1423  170.5355 O.3     1  UNL1       -0.3501
     11 C         139.4971  140.2806  169.3101 C.3     1  UNL1        0.1636
     12 C         139.8869  140.8401  167.9740 C.3     1  UNL1        0.1231
     13 N         143.9167  142.9702  164.1475 N.pl3   1  UNL1       -0.3057
     14 H         144.6283  143.6099  164.3788 H       1  UNL1        0.1492
     15 C         144.2238  141.7906  163.2733 C.3     1  UNL1        0.1959
     16 C         144.7104  140.5103  163.8848 C.1     1  UNL1        0.0952
     17 N         145.1971  139.2300  164.4964 N.1     1  UNL1       -0.1941
     18 C         139.1311  144.9082  163.5625 C.3     1  UNL1        0.1123
     19 S         137.8618  144.2437  163.1184 S.3     1  UNL1       -0.0504
     20 C         137.8600  139.0928  161.9567 C.3     1  UNL1        0.0551
     21 C         137.9171  140.5857  161.8217 C.ar    1  UNL1        0.0932
     22 N         137.8099  141.5770  162.9424 N.ar    1  UNL1       -0.2074
     23 C         137.9179  142.9533  162.3557 C.ar    1  UNL1        0.2584
     24 O         138.0919  142.8126  160.8725 O.2     1  UNL1       -0.4348
     25 C         138.0913  141.3493  160.5425 C.ar    1  UNL1        0.1391
     26 C         138.2392  140.7542  159.1736 C.3     1  UNL1        0.0739
@<TRIPOS>BOND
     1    20    21    1
     2    21    22   ar
     3    22    23   ar
     4    23    19    1
     5    19    18    1
     6    18     1    1
     7     1     2   ar
     8     2     3   ar
     9     3     7    1
    10     7     8    1
    11     8     9    1
    12     9    10    1
    13    10    11    1
    14    11    12    1
    15     3     4   ar
    16     4     5   ar
    17     5    13    1
    18    13    15    1
    19    15    16    1
    20    16    17    3
    21     5     6   ar
    22    23    24   ar
    23    24    25   ar
    24    25    26    1
    25    25    21   ar
    26     6     1   ar
    27    12     7    1
    28    13    14    1
