@<TRIPOS>MOLECULE
*****
 38 43 0 0 0
SMALL
GASTEIGER

@<TRIPOS>ATOM
      1 N         144.3252  141.5974  158.2707 N.ar    1  UNL1       -0.2265
      2 C         143.6067  142.7782  158.8532 C.ar    1  UNL1        0.1212
      3 C         142.7375  142.2861  159.9722 C.ar    1  UNL1        0.1260
      4 N         141.8044  142.9984  160.9059 N.ar    1  UNL1       -0.2248
      5 C         141.0524  142.2256  161.9488 C.ar    1  UNL1        0.1472
      6 N         141.2336  140.7407  162.0578 N.ar    1  UNL1       -0.2792
      7 C         142.1668  140.0284  161.1241 C.ar    1  UNL1        0.2829
      8 O         142.3480  138.5434  161.2332 O.2     1  UNL1       -0.2652
      9 C         142.9187  140.8011  160.0813 C.ar    1  UNL1        0.1762
     10 N         143.9000  140.3754  159.0297 N.ar    1  UNL1       -0.1586
     11 C         140.1192  142.9379  162.8826 C.ar    1  UNL1        0.0478
     12 C         140.6328  143.4906  164.1790 C.ar    1  UNL1        0.0058
     13 C         139.6996  144.2029  165.1127 C.ar    1  UNL1        0.0208
     14 C         138.2529  144.3625  164.7500 C.ar    1  UNL1        0.0984
     15 N         137.7393  143.8097  163.4536 N.ar    1  UNL1       -0.2480
     16 C         138.6725  143.0975  162.5199 C.ar    1  UNL1        0.0623
     17 C         138.1589  142.5447  161.2234 C.3     1  UNL1        0.0522
     18 C         147.2438  141.7019  154.8471 C.ar    1  UNL1        0.1388
     19 C         146.0275  140.8277  154.7692 C.ar    1  UNL1        0.0384
     20 C         145.0546  140.7929  155.9104 C.ar    1  UNL1        0.0223
     21 C         145.2981  141.6322  157.1295 C.ar    1  UNL1        0.0831
     22 C         146.5145  142.5065  157.2074 C.ar    1  UNL1        0.0223
     23 C         147.4873  142.5413  156.0662 C.ar    1  UNL1        0.0384
     24 C         149.6791  141.9368  153.9730 C.3     1  UNL1        0.2525
     25 O         148.2167  141.7368  153.7059 O.3     1  UNL1       -0.4714
     26 C         140.4817  139.9679  163.1007 C.3     1  UNL1        0.1119
     27 C         141.0490  139.8236  164.4817 C.3     1  UNL1        0.0388
     28 C         142.4935  139.4635  164.6653 C.3     1  UNL1        0.0048
     29 C         143.0609  139.3193  166.0464 C.3     1  UNL1        0.0174
     30 C         142.1837  139.5351  167.2438 C.3     1  UNL1        0.0722
     31 N         140.7391  139.8952  167.0602 N.3     1  UNL1       -0.2706
     32 C         140.1718  140.0395  165.6792 C.3     1  UNL1        0.0741
     33 C         139.8619  140.1111  168.2578 C.3     1  UNL1        0.1020
     34 C         139.9472  141.3952  169.0282 C.3     1  UNL1        0.1312
     35 C         140.6015  142.6617  168.5612 C.3     1  UNL1        0.0336
     36 C         140.4520  143.6876  169.6452 C.3     1  UNL1        0.0346
     37 C         139.7053  143.0553  170.7822 C.3     1  UNL1        0.1422
     38 O         139.3933  141.6385  170.4008 O.3     1  UNL1       -0.3548
@<TRIPOS>BOND
     1    24    25    1
     2    25    18    1
     3    18    19   ar
     4    19    20   ar
     5    20    21   ar
     6    21     1    1
     7     1     2   ar
     8     2     3   ar
     9     3     4   ar
    10     4     5   ar
    11     5    11    1
    12    11    12   ar
    13    12    13   ar
    14    13    14   ar
    15    14    15   ar
    16    15    16   ar
    17    16    17    1
    18     5     6   ar
    19     6    26    1
    20    27    26    1
    21    27    28    1
    22    28    29    1
    23    29    30    1
    24    30    31    1
    25    31    33    1
    26    34    33    1
    27    34    35    1
    28    35    36    1
    29    36    37    1
    30    37    38    1
    31    31    32    1
    32     6     7   ar
    33     7     8    2
    34     7     9   ar
    35     9    10   ar
    36    21    22   ar
    37    22    23   ar
    38    23    18   ar
    39    10     1   ar
    40     9     3   ar
    41    16    11   ar
    42    32    27    1
    43    38    34    1
@<TRIPOS>MOLECULE
*****
 38 43 0 0 0
SMALL
GASTEIGER

@<TRIPOS>ATOM
      1 N         140.0620  145.0360  158.2069 N.ar    1  UNL1       -0.2265
      2 C         140.7068  145.4304  159.5025 C.ar    1  UNL1        0.1212
      3 C         140.3341  144.4088  160.5356 C.ar    1  UNL1        0.1260
      4 N         140.6786  144.2802  161.9899 N.ar    1  UNL1       -0.2248
      5 C         140.1478  143.1256  162.7870 C.ar    1  UNL1        0.1472
      6 N         139.2728  142.0998  162.1299 N.ar    1  UNL1       -0.2792
      7 C         138.9283  142.2284  160.6757 C.ar    1  UNL1        0.2829
      8 O         138.0531  141.2026  160.0186 O.2     1  UNL1       -0.2652
      9 C         139.4590  143.3829  159.8786 C.ar    1  UNL1        0.1762
     10 N         139.2908  143.7705  158.4393 N.ar    1  UNL1       -0.1586
     11 C         140.4923  142.9969  164.2413 C.ar    1  UNL1        0.0478
     12 C         141.7802  142.3470  164.6523 C.ar    1  UNL1        0.0058
     13 C         142.1246  142.2183  166.1066 C.ar    1  UNL1        0.0208
     14 C         141.1812  142.7396  167.1497 C.ar    1  UNL1        0.0984
     15 N         139.8933  143.3895  166.7387 N.ar    1  UNL1       -0.2480
     16 C         139.5489  143.5181  165.2845 C.ar    1  UNL1        0.0623
     17 C         138.2610  144.1680  164.8734 C.3     1  UNL1        0.0522
     18 C         140.3846  147.2585  154.3073 C.ar    1  UNL1        0.1388
     19 C         141.2307  146.0440  154.5506 C.ar    1  UNL1        0.0384
     20 C         141.1231  145.3032  155.8505 C.ar    1  UNL1        0.0223
     21 C         140.1695  145.7768  156.9071 C.ar    1  UNL1        0.0831
     22 C         139.3234  146.9912  156.6638 C.ar    1  UNL1        0.0223
     23 C         139.4310  147.7321  155.3639 C.ar    1  UNL1        0.0384
     24 C         140.8244  149.4620  153.0032 C.3     1  UNL1        0.2525
     25 O         140.4921  147.9993  153.0075 O.3     1  UNL1       -0.4714
     26 C         138.7420  140.9452  162.9271 C.3     1  UNL1        0.1119
     27 C         139.5842  139.7198  163.1242 C.3     1  UNL1        0.0388
     28 C         138.9875  138.4916  163.7451 C.3     1  UNL1        0.0048
     29 C         139.8297  137.2660  163.9423 C.3     1  UNL1        0.0174
     30 C         141.2686  137.2687  163.5185 C.3     1  UNL1        0.0722
     31 N         141.8653  138.4970  162.8976 N.3     1  UNL1       -0.2706
     32 C         141.0231  139.7224  162.7004 C.3     1  UNL1        0.0741
     33 C         143.3043  138.4996  162.4738 C.3     1  UNL1        0.1020
     34 C         144.1763  139.6790  162.7876 C.3     1  UNL1        0.1312
     35 C         144.9019  139.9204  164.0781 C.3     1  UNL1        0.0336
     36 C         145.6499  141.2147  163.9542 C.3     1  UNL1        0.0346
     37 C         145.3867  141.7732  162.5872 C.3     1  UNL1        0.1422
     38 O         144.4760  140.8241  161.8662 O.3     1  UNL1       -0.3548
@<TRIPOS>BOND
     1    24    25    1
     2    25    18    1
     3    18    19   ar
     4    19    20   ar
     5    20    21   ar
     6    21     1    1
     7     1     2   ar
     8     2     3   ar
     9     3     4   ar
    10     4     5   ar
    11     5    11    1
    12    11    12   ar
    13    12    13   ar
    14    13    14   ar
    15    14    15   ar
    16    15    16   ar
    17    16    17    1
    18     5     6   ar
    19     6    26    1
    20    27    26    1
    21    27    28    1
    22    28    29    1
    23    29    30    1
    24    30    31    1
    25    31    33    1
    26    34    33    1
    27    34    35    1
    28    35    36    1
    29    36    37    1
    30    37    38    1
    31    31    32    1
    32     6     7   ar
    33     7     8    2
    34     7     9   ar
    35     9    10   ar
    36    21    22   ar
    37    22    23   ar
    38    23    18   ar
    39    10     1   ar
    40     9     3   ar
    41    16    11   ar
    42    32    27    1
    43    38    34    1
@<TRIPOS>MOLECULE
*****
 38 43 0 0 0
SMALL
GASTEIGER

@<TRIPOS>ATOM
      1 N         139.9642  145.3772  157.8060 N.ar    1  UNL1       -0.2265
      2 C         139.8912  143.8790  157.8143 C.ar    1  UNL1        0.1212
      3 C         139.9305  143.4210  159.2421 C.ar    1  UNL1        0.1260
      4 N         139.8903  142.0544  159.8592 N.ar    1  UNL1       -0.2248
      5 C         139.9474  141.9030  161.3505 C.ar    1  UNL1        0.1472
      6 N         140.0447  143.1180  162.2246 N.ar    1  UNL1       -0.2792
      7 C         140.0849  144.4846  161.6075 C.ar    1  UNL1        0.2829
      8 O         140.1823  145.6997  162.4816 O.2     1  UNL1       -0.2652
      9 C         140.0278  144.6361  160.1162 C.ar    1  UNL1        0.1762
     10 N         140.0486  145.8451  159.2286 N.ar    1  UNL1       -0.1586
     11 C         139.9072  140.5363  161.9677 C.ar    1  UNL1        0.0478
     12 C         138.5994  139.9535  162.4149 C.ar    1  UNL1        0.0058
     13 C         138.5592  138.5870  163.0320 C.ar    1  UNL1        0.0208
     14 C         139.8268  137.8032  163.2019 C.ar    1  UNL1        0.0984
     15 N         141.1346  138.3860  162.7547 N.ar    1  UNL1       -0.2480
     16 C         141.1748  139.7525  162.1376 C.ar    1  UNL1        0.0623
     17 C         142.4826  140.3353  161.6903 C.3     1  UNL1        0.0522
     18 C         139.9349  148.0065  154.1541 C.ar    1  UNL1        0.1388
     19 C         140.7858  146.7715  154.1823 C.ar    1  UNL1        0.0384
     20 C         140.7955  145.8951  155.3996 C.ar    1  UNL1        0.0223
     21 C         139.9544  146.2536  156.5887 C.ar    1  UNL1        0.0831
     22 C         139.1036  147.4887  156.5606 C.ar    1  UNL1        0.0223
     23 C         139.0939  148.3651  155.3433 C.ar    1  UNL1        0.0384
     24 C         139.5562  150.3318  153.0589 C.3     1  UNL1        0.2525
     25 O         139.9252  148.8830  152.9369 O.3     1  UNL1       -0.4714
     26 C         140.1018  142.9666  163.7159 C.3     1  UNL1        0.1119
     27 C         141.4267  142.9626  164.4191 C.3     1  UNL1        0.0388
     28 C         142.6677  143.3728  163.6832 C.3     1  UNL1        0.0048
     29 C         143.9927  143.3688  164.3865 C.3     1  UNL1        0.0174
     30 C         144.0765  142.9546  165.8257 C.3     1  UNL1        0.0722
     31 N         142.8354  142.5444  166.5617 N.3     1  UNL1       -0.2706
     32 C         141.5106  142.5484  165.8584 C.3     1  UNL1        0.0741
     33 C         142.9194  142.1301  168.0010 C.3     1  UNL1        0.1020
     34 C         141.6817  142.1069  168.8481 C.3     1  UNL1        0.1312
     35 C         141.1560  143.2446  169.6724 C.3     1  UNL1        0.0336
     36 C         139.9019  142.7828  170.3534 C.3     1  UNL1        0.0346
     37 C         139.6524  141.3598  169.9500 C.3     1  UNL1        0.1422
     38 O         140.7524  140.9420  169.0197 O.3     1  UNL1       -0.3548
@<TRIPOS>BOND
     1    24    25    1
     2    25    18    1
     3    18    19   ar
     4    19    20   ar
     5    20    21   ar
     6    21     1    1
     7     1     2   ar
     8     2     3   ar
     9     3     4   ar
    10     4     5   ar
    11     5    11    1
    12    11    12   ar
    13    12    13   ar
    14    13    14   ar
    15    14    15   ar
    16    15    16   ar
    17    16    17    1
    18     5     6   ar
    19     6    26    1
    20    27    26    1
    21    27    28    1
    22    28    29    1
    23    29    30    1
    24    30    31    1
    25    31    33    1
    26    34    33    1
    27    34    35    1
    28    35    36    1
    29    36    37    1
    30    37    38    1
    31    31    32    1
    32     6     7   ar
    33     7     8    2
    34     7     9   ar
    35     9    10   ar
    36    21    22   ar
    37    22    23   ar
    38    23    18   ar
    39    10     1   ar
    40     9     3   ar
    41    16    11   ar
    42    32    27    1
    43    38    34    1
@<TRIPOS>MOLECULE
*****
 38 43 0 0 0
SMALL
GASTEIGER

@<TRIPOS>ATOM
      1 N         141.6918  136.7674  156.5816 N.ar    1  UNL1       -0.2265
      2 C         140.3917  137.2847  157.1221 C.ar    1  UNL1        0.1212
      3 C         140.7000  138.3631  158.1180 C.ar    1  UNL1        0.1260
      4 N         139.8159  139.2285  158.9663 N.ar    1  UNL1       -0.2248
      5 C         140.4226  140.2431  159.8896 C.ar    1  UNL1        0.1472
      6 N         141.9132  140.3923  159.9647 N.ar    1  UNL1       -0.2792
      7 C         142.7973  139.5269  159.1165 C.ar    1  UNL1        0.2829
      8 O         144.2880  139.6762  159.1916 O.2     1  UNL1       -0.2652
      9 C         142.1907  138.5123  158.1931 C.ar    1  UNL1        0.1762
     10 N         142.8037  137.5261  157.2436 N.ar    1  UNL1       -0.1586
     11 C         139.5385  141.1086  160.7379 C.ar    1  UNL1        0.0478
     12 C         139.1442  140.6577  162.1131 C.ar    1  UNL1        0.0058
     13 C         138.2601  141.5231  162.9614 C.ar    1  UNL1        0.0208
     14 C         137.7704  142.8394  162.4344 C.ar    1  UNL1        0.0984
     15 N         138.1648  143.2902  161.0592 N.ar    1  UNL1       -0.2480
     16 C         139.0488  142.4248  160.2109 C.ar    1  UNL1        0.0623
     17 C         139.4432  142.8756  158.8357 C.3     1  UNL1        0.0522
     18 C         142.1724  133.5111  153.5131 C.ar    1  UNL1        0.1388
     19 C         141.5541  134.8216  153.1254 C.ar    1  UNL1        0.0384
     20 C         141.3940  135.9070  154.1483 C.ar    1  UNL1        0.0223
     21 C         141.8520  135.6820  155.5588 C.ar    1  UNL1        0.0831
     22 C         142.4702  134.3714  155.9465 C.ar    1  UNL1        0.0223
     23 C         142.6304  133.2860  154.9236 C.ar    1  UNL1        0.0384
     24 C         143.1678  131.2193  152.8015 C.3     1  UNL1        0.2525
     25 O         142.3326  132.4257  152.4903 O.3     1  UNL1       -0.4714
     26 C         142.5199  141.4070  160.8880 C.3     1  UNL1        0.1119
     27 C         143.2557  140.9586  162.1158 C.3     1  UNL1        0.0388
     28 C         144.6505  141.4460  162.3742 C.3     1  UNL1        0.0048
     29 C         145.3864  140.9976  163.6020 C.3     1  UNL1        0.0174
     30 C         144.7273  140.0617  164.5715 C.3     1  UNL1        0.0722
     31 N         143.3323  139.5743  164.3130 N.3     1  UNL1       -0.2706
     32 C         142.5966  140.0227  163.0853 C.3     1  UNL1        0.0741
     33 C         142.6733  138.6384  165.2826 C.3     1  UNL1        0.1020
     34 C         141.1783  138.5200  165.3123 C.3     1  UNL1        0.1312
     35 C         140.3690  137.4150  164.7006 C.3     1  UNL1        0.0336
     36 C         138.9206  137.6978  164.9692 C.3     1  UNL1        0.0346
     37 C         138.8347  138.9776  165.7469 C.3     1  UNL1        0.1422
     38 O         140.2299  139.4857  165.9589 O.3     1  UNL1       -0.3548
@<TRIPOS>BOND
     1    24    25    1
     2    25    18    1
     3    18    19   ar
     4    19    20   ar
     5    20    21   ar
     6    21     1    1
     7     1     2   ar
     8     2     3   ar
     9     3     4   ar
    10     4     5   ar
    11     5    11    1
    12    11    12   ar
    13    12    13   ar
    14    13    14   ar
    15    14    15   ar
    16    15    16   ar
    17    16    17    1
    18     5     6   ar
    19     6    26    1
    20    27    26    1
    21    27    28    1
    22    28    29    1
    23    29    30    1
    24    30    31    1
    25    31    33    1
    26    34    33    1
    27    34    35    1
    28    35    36    1
    29    36    37    1
    30    37    38    1
    31    31    32    1
    32     6     7   ar
    33     7     8    2
    34     7     9   ar
    35     9    10   ar
    36    21    22   ar
    37    22    23   ar
    38    23    18   ar
    39    10     1   ar
    40     9     3   ar
    41    16    11   ar
    42    32    27    1
    43    38    34    1
@<TRIPOS>MOLECULE
*****
 38 43 0 0 0
SMALL
GASTEIGER

@<TRIPOS>ATOM
      1 N         142.9297  136.8444  157.9915 N.ar    1  UNL1       -0.2265
      2 C         142.9360  136.9943  159.4840 C.ar    1  UNL1        0.1212
      3 C         143.1409  138.4455  159.8032 C.ar    1  UNL1        0.1260
      4 N         143.2335  139.1833  161.1059 N.ar    1  UNL1       -0.2248
      5 C         143.4463  140.6682  161.1134 C.ar    1  UNL1        0.1472
      6 N         143.5665  141.4151  159.8183 N.ar    1  UNL1       -0.2792
      7 C         143.4739  140.6774  158.5156 C.ar    1  UNL1        0.2829
      8 O         143.5942  141.4244  157.2204 O.2     1  UNL1       -0.2652
      9 C         143.2611  139.1926  158.5080 C.ar    1  UNL1        0.1762
     10 N         143.1306  138.2030  157.3883 N.ar    1  UNL1       -0.1586
     11 C         143.5389  141.4060  162.4162 C.ar    1  UNL1        0.0478
     12 C         144.8816  141.7540  162.9873 C.ar    1  UNL1        0.0058
     13 C         144.9742  142.4918  164.2900 C.ar    1  UNL1        0.0208
     14 C         143.7241  142.8815  165.0217 C.ar    1  UNL1        0.0984
     15 N         142.3814  142.5335  164.4507 N.ar    1  UNL1       -0.2480
     16 C         142.2888  141.7957  163.1479 C.ar    1  UNL1        0.0623
     17 C         140.9461  141.4477  162.5769 C.3     1  UNL1        0.0522
     18 C         142.4006  132.9948  155.7219 C.ar    1  UNL1        0.1388
     19 C         141.6974  134.2381  155.2640 C.ar    1  UNL1        0.0384
     20 C         141.8738  135.5213  156.0206 C.ar    1  UNL1        0.0223
     21 C         142.7533  135.5612  157.2350 C.ar    1  UNL1        0.0831
     22 C         143.4565  134.3179  157.6929 C.ar    1  UNL1        0.0223
     23 C         143.2801  133.0347  156.9363 C.ar    1  UNL1        0.0384
     24 C         140.8492  131.2476  154.5860 C.3     1  UNL1        0.2525
     25 O         142.2243  131.7116  154.9654 O.3     1  UNL1       -0.4714
     26 C         143.7794  142.9000  159.8258 C.3     1  UNL1        0.1119
     27 C         142.6242  143.8245  159.5794 C.3     1  UNL1        0.0388
     28 C         142.2382  144.1848  158.1754 C.3     1  UNL1        0.0048
     29 C         141.0830  145.1094  157.9289 C.3     1  UNL1        0.0174
     30 C         140.3138  145.6736  159.0865 C.3     1  UNL1        0.0722
     31 N         140.6998  145.3132  160.4905 N.3     1  UNL1       -0.2706
     32 C         141.8549  144.3887  160.7370 C.3     1  UNL1        0.0741
     33 C         139.9305  145.8775  161.6481 C.3     1  UNL1        0.1020
     34 C         139.1796  144.9608  162.5678 C.3     1  UNL1        0.1312
     35 C         139.3764  144.8443  164.0503 C.3     1  UNL1        0.0336
     36 C         138.4186  143.8111  164.5652 C.3     1  UNL1        0.0346
     37 C         137.6298  143.2891  163.4010 C.3     1  UNL1        0.1422
     38 O         138.1001  143.9996  162.1666 O.3     1  UNL1       -0.3548
@<TRIPOS>BOND
     1    24    25    1
     2    25    18    1
     3    18    19   ar
     4    19    20   ar
     5    20    21   ar
     6    21     1    1
     7     1     2   ar
     8     2     3   ar
     9     3     4   ar
    10     4     5   ar
    11     5    11    1
    12    11    12   ar
    13    12    13   ar
    14    13    14   ar
    15    14    15   ar
    16    15    16   ar
    17    16    17    1
    18     5     6   ar
    19     6    26    1
    20    27    26    1
    21    27    28    1
    22    28    29    1
    23    29    30    1
    24    30    31    1
    25    31    33    1
    26    34    33    1
    27    34    35    1
    28    35    36    1
    29    36    37    1
    30    37    38    1
    31    31    32    1
    32     6     7   ar
    33     7     8    2
    34     7     9   ar
    35     9    10   ar
    36    21    22   ar
    37    22    23   ar
    38    23    18   ar
    39    10     1   ar
    40     9     3   ar
    41    16    11   ar
    42    32    27    1
    43    38    34    1
@<TRIPOS>MOLECULE
*****
 38 43 0 0 0
SMALL
GASTEIGER

@<TRIPOS>ATOM
      1 N         140.6839  145.5368  158.3911 N.ar    1  UNL1       -0.2265
      2 C         141.7491  144.4882  158.5170 C.ar    1  UNL1        0.1212
      3 C         141.7484  143.9945  159.9334 C.ar    1  UNL1        0.1260
      4 N         142.5804  142.9640  160.6374 N.ar    1  UNL1       -0.2248
      5 C         142.3468  142.6769  162.0911 C.ar    1  UNL1        0.1472
      6 N         141.2813  143.4203  162.8406 N.ar    1  UNL1       -0.2792
      7 C         140.4492  144.4508  162.1365 C.ar    1  UNL1        0.2829
      8 O         139.3836  145.1942  162.8861 O.2     1  UNL1       -0.2652
      9 C         140.6828  144.7379  160.6829 C.ar    1  UNL1        0.1762
     10 N         140.0249  145.6912  159.7297 N.ar    1  UNL1       -0.1586
     11 C         143.1789  141.6463  162.7952 C.ar    1  UNL1        0.0478
     12 C         144.4321  142.0553  163.5107 C.ar    1  UNL1        0.0058
     13 C         145.2641  141.0248  164.2148 C.ar    1  UNL1        0.0208
     14 C         144.8429  139.5852  164.2033 C.ar    1  UNL1        0.0984
     15 N         143.5896  139.1762  163.4879 N.ar    1  UNL1       -0.2480
     16 C         142.7576  140.2067  162.7838 C.ar    1  UNL1        0.0623
     17 C         141.5043  139.7977  162.0683 C.3     1  UNL1        0.0522
     18 C         139.6473  147.8191  154.6539 C.ar    1  UNL1        0.1388
     19 C         138.9187  148.1048  155.9335 C.ar    1  UNL1        0.0384
     20 C         139.2643  147.3440  157.1793 C.ar    1  UNL1        0.0223
     21 C         140.3384  146.2976  157.1454 C.ar    1  UNL1        0.0831
     22 C         141.0670  146.0119  155.8657 C.ar    1  UNL1        0.0223
     23 C         140.7214  146.7727  154.6200 C.ar    1  UNL1        0.0384
     24 C         139.8977  149.9352  153.1676 C.3     1  UNL1        0.2525
     25 O         139.3018  148.5799  153.4082 O.3     1  UNL1       -0.4714
     26 C         141.0476  143.1332  164.2943 C.3     1  UNL1        0.1119
     27 C         140.0797  142.0621  164.7011 C.3     1  UNL1        0.0388
     28 C         138.9625  141.6713  163.7795 C.3     1  UNL1        0.0048
     29 C         137.9945  140.6001  164.1864 C.3     1  UNL1        0.0174
     30 C         138.1436  139.9198  165.5148 C.3     1  UNL1        0.0722
     31 N         139.2607  140.3106  166.4365 N.3     1  UNL1       -0.2706
     32 C         140.2287  141.3817  166.0296 C.3     1  UNL1        0.0741
     33 C         139.4098  139.6301  167.7650 C.3     1  UNL1        0.1020
     34 C         140.1252  140.3232  168.8865 C.3     1  UNL1        0.1312
     35 C         141.3963  139.8648  169.5380 C.3     1  UNL1        0.0336
     36 C         141.7519  140.8546  170.6076 C.3     1  UNL1        0.0346
     37 C         140.7007  141.9246  170.6171 C.3     1  UNL1        0.1422
     38 O         139.6954  141.5962  169.5534 O.3     1  UNL1       -0.3548
@<TRIPOS>BOND
     1    24    25    1
     2    25    18    1
     3    18    19   ar
     4    19    20   ar
     5    20    21   ar
     6    21     1    1
     7     1     2   ar
     8     2     3   ar
     9     3     4   ar
    10     4     5   ar
    11     5    11    1
    12    11    12   ar
    13    12    13   ar
    14    13    14   ar
    15    14    15   ar
    16    15    16   ar
    17    16    17    1
    18     5     6   ar
    19     6    26    1
    20    27    26    1
    21    27    28    1
    22    28    29    1
    23    29    30    1
    24    30    31    1
    25    31    33    1
    26    34    33    1
    27    34    35    1
    28    35    36    1
    29    36    37    1
    30    37    38    1
    31    31    32    1
    32     6     7   ar
    33     7     8    2
    34     7     9   ar
    35     9    10   ar
    36    21    22   ar
    37    22    23   ar
    38    23    18   ar
    39    10     1   ar
    40     9     3   ar
    41    16    11   ar
    42    32    27    1
    43    38    34    1
@<TRIPOS>MOLECULE
*****
 38 43 0 0 0
SMALL
GASTEIGER

@<TRIPOS>ATOM
      1 N         144.3001  141.7484  158.3343 N.ar    1  UNL1       -0.2265
      2 C         143.7773  142.9123  159.1228 C.ar    1  UNL1        0.1212
      3 C         142.6649  142.4167  159.9985 C.ar    1  UNL1        0.1260
      4 N         141.7806  143.1143  160.9892 N.ar    1  UNL1       -0.2248
      5 C         140.7316  142.3415  161.7325 C.ar    1  UNL1        0.1472
      6 N         140.5668  140.8714  161.4851 N.ar    1  UNL1       -0.2792
      7 C         141.4511  140.1738  160.4944 C.ar    1  UNL1        0.2829
      8 O         141.2863  138.7035  160.2471 O.2     1  UNL1       -0.2652
      9 C         142.5001  140.9465  159.7511 C.ar    1  UNL1        0.1762
     10 N         143.5108  140.5334  158.7226 N.ar    1  UNL1       -0.1586
     11 C         139.8472  143.0391  162.7232 C.ar    1  UNL1        0.0478
     12 C         138.4192  143.3372  162.3742 C.ar    1  UNL1        0.0058
     13 C         137.5349  144.0348  163.3649 C.ar    1  UNL1        0.0208
     14 C         138.0787  144.4343  164.7045 C.ar    1  UNL1        0.0984
     15 N         139.5068  144.1362  165.0535 N.ar    1  UNL1       -0.2480
     16 C         140.3910  143.4387  164.0629 C.ar    1  UNL1        0.0623
     17 C         141.8191  143.1406  164.4118 C.3     1  UNL1        0.0522
     18 C         147.6487  141.8784  155.3308 C.ar    1  UNL1        0.1388
     19 C         146.4650  140.9874  155.0962 C.ar    1  UNL1        0.0384
     20 C         145.3488  140.9441  156.0974 C.ar    1  UNL1        0.0223
     21 C         145.4163  141.7917  157.3332 C.ar    1  UNL1        0.0831
     22 C         146.6000  142.6827  157.5678 C.ar    1  UNL1        0.0223
     23 C         147.7162  142.7259  156.5666 C.ar    1  UNL1        0.0384
     24 C         148.6930  142.8665  153.1669 C.3     1  UNL1        0.2525
     25 O         148.7649  141.9217  154.3297 O.3     1  UNL1       -0.4714
     26 C         139.5178  140.0986  162.2284 C.3     1  UNL1        0.1119
     27 C         139.5969  139.9707  163.7208 C.3     1  UNL1        0.0388
     28 C         138.3450  140.0215  164.5453 C.3     1  UNL1        0.0048
     29 C         138.4241  139.8937  166.0378 C.3     1  UNL1        0.0174
     30 C         139.7552  139.7150  166.7057 C.3     1  UNL1        0.0722
     31 N         141.0073  139.6642  165.8811 N.3     1  UNL1       -0.2706
     32 C         140.9281  139.7920  164.3887 C.3     1  UNL1        0.0741
     33 C         142.3385  139.4855  166.5490 C.3     1  UNL1        0.1020
     34 C         142.6840  140.2975  167.7619 C.3     1  UNL1        0.1312
     35 C         142.8913  141.7827  167.7989 C.3     1  UNL1        0.0336
     36 C         143.2182  142.1701  169.2106 C.3     1  UNL1        0.0346
     37 C         143.2130  140.9244  170.0462 C.3     1  UNL1        0.1422
     38 O         142.8828  139.7671  169.1509 O.3     1  UNL1       -0.3548
@<TRIPOS>BOND
     1    24    25    1
     2    25    18    1
     3    18    19   ar
     4    19    20   ar
     5    20    21   ar
     6    21     1    1
     7     1     2   ar
     8     2     3   ar
     9     3     4   ar
    10     4     5   ar
    11     5    11    1
    12    11    12   ar
    13    12    13   ar
    14    13    14   ar
    15    14    15   ar
    16    15    16   ar
    17    16    17    1
    18     5     6   ar
    19     6    26    1
    20    27    26    1
    21    27    28    1
    22    28    29    1
    23    29    30    1
    24    30    31    1
    25    31    33    1
    26    34    33    1
    27    34    35    1
    28    35    36    1
    29    36    37    1
    30    37    38    1
    31    31    32    1
    32     6     7   ar
    33     7     8    2
    34     7     9   ar
    35     9    10   ar
    36    21    22   ar
    37    22    23   ar
    38    23    18   ar
    39    10     1   ar
    40     9     3   ar
    41    16    11   ar
    42    32    27    1
    43    38    34    1
@<TRIPOS>MOLECULE
*****
 38 43 0 0 0
SMALL
GASTEIGER

@<TRIPOS>ATOM
      1 N         139.7846  139.4238  163.2120 N.ar    1  UNL1       -0.2265
      2 C         140.8106  138.5436  162.5619 C.ar    1  UNL1        0.1212
      3 C         140.7900  138.8188  161.0875 C.ar    1  UNL1        0.1260
      4 N         141.5829  138.2487  159.9489 N.ar    1  UNL1       -0.2248
      5 C         141.3371  138.7290  158.5492 C.ar    1  UNL1        0.1472
      6 N         140.2985  139.7792  158.2882 N.ar    1  UNL1       -0.2792
      7 C         139.5056  140.3492  159.4267 C.ar    1  UNL1        0.2829
      8 O         138.4669  141.3995  159.1656 O.2     1  UNL1       -0.2652
      9 C         139.7513  139.8691  160.8264 C.ar    1  UNL1        0.1762
     10 N         139.1300  140.2430  162.1394 N.ar    1  UNL1       -0.1586
     11 C         142.1300  138.1589  157.4106 C.ar    1  UNL1        0.0478
     12 C         141.7079  136.8673  156.7753 C.ar    1  UNL1        0.0058
     13 C         142.5008  136.2973  155.6367 C.ar    1  UNL1        0.0208
     14 C         143.7158  137.0188  155.1335 C.ar    1  UNL1        0.0984
     15 N         144.1379  138.3103  155.7689 N.ar    1  UNL1       -0.2480
     16 C         143.3450  138.8804  156.9074 C.ar    1  UNL1        0.0623
     17 C         143.7671  140.1719  157.5428 C.3     1  UNL1        0.0522
     18 C         138.8370  139.5796  167.6084 C.ar    1  UNL1        0.1388
     19 C         139.8779  140.4934  167.0327 C.ar    1  UNL1        0.0384
     20 C         140.1937  140.4414  165.5672 C.ar    1  UNL1        0.0223
     21 C         139.4687  139.4757  164.6774 C.ar    1  UNL1        0.0831
     22 C         138.4278  138.5619  165.2531 C.ar    1  UNL1        0.0223
     23 C         138.1120  138.6139  166.7186 C.ar    1  UNL1        0.0384
     24 C         139.3354  140.5001  169.9862 C.3     1  UNL1        0.2525
     25 O         138.5211  139.6315  169.0738 O.3     1  UNL1       -0.4714
     26 C         140.0526  140.2594  156.8885 C.3     1  UNL1        0.1119
     27 C         138.8884  139.7274  156.1067 C.3     1  UNL1        0.0388
     28 C         139.0347  138.4661  155.3081 C.3     1  UNL1        0.0048
     29 C         137.8705  137.9340  154.5262 C.3     1  UNL1        0.0174
     30 C         136.5598  138.6632  154.5429 C.3     1  UNL1        0.0722
     31 N         136.4134  139.9246  155.3414 N.3     1  UNL1       -0.2706
     32 C         137.5776  140.4566  156.1233 C.3     1  UNL1        0.0741
     33 C         135.1027  140.6539  155.3581 C.3     1  UNL1        0.1020
     34 C         133.9692  140.1402  156.1955 C.3     1  UNL1        0.1312
     35 C         132.5474  140.6153  156.1416 C.3     1  UNL1        0.0336
     36 C         131.7579  139.8300  157.1466 C.3     1  UNL1        0.0346
     37 C         132.6917  138.8695  157.8216 C.3     1  UNL1        0.1422
     38 O         134.0584  139.0612  157.2337 O.3     1  UNL1       -0.3548
@<TRIPOS>BOND
     1    24    25    1
     2    25    18    1
     3    18    19   ar
     4    19    20   ar
     5    20    21   ar
     6    21     1    1
     7     1     2   ar
     8     2     3   ar
     9     3     4   ar
    10     4     5   ar
    11     5    11    1
    12    11    12   ar
    13    12    13   ar
    14    13    14   ar
    15    14    15   ar
    16    15    16   ar
    17    16    17    1
    18     5     6   ar
    19     6    26    1
    20    27    26    1
    21    27    28    1
    22    28    29    1
    23    29    30    1
    24    30    31    1
    25    31    33    1
    26    34    33    1
    27    34    35    1
    28    35    36    1
    29    36    37    1
    30    37    38    1
    31    31    32    1
    32     6     7   ar
    33     7     8    2
    34     7     9   ar
    35     9    10   ar
    36    21    22   ar
    37    22    23   ar
    38    23    18   ar
    39    10     1   ar
    40     9     3   ar
    41    16    11   ar
    42    32    27    1
    43    38    34    1
@<TRIPOS>MOLECULE
*****
 38 43 0 0 0
SMALL
GASTEIGER

@<TRIPOS>ATOM
      1 N         141.6180  136.1707  156.2387 N.ar    1  UNL1       -0.2265
      2 C         142.8640  136.5891  156.9613 C.ar    1  UNL1        0.1212
      3 C         142.5140  137.7354  157.8632 C.ar    1  UNL1        0.1260
      4 N         143.3380  138.5526  158.8136 N.ar    1  UNL1       -0.2248
      5 C         142.6996  139.6599  159.5987 C.ar    1  UNL1        0.1472
      6 N         141.2373  139.9500  159.4335 N.ar    1  UNL1       -0.2792
      7 C         140.4132  139.1328  158.4831 C.ar    1  UNL1        0.2829
      8 O         138.9509  139.4228  158.3179 O.2     1  UNL1       -0.2652
      9 C         141.0516  138.0255  157.6980 C.ar    1  UNL1        0.1762
     10 N         140.4978  137.0584  156.6940 N.ar    1  UNL1       -0.1586
     11 C         143.5236  140.4772  160.5491 C.ar    1  UNL1        0.0478
     12 C         143.8042  139.9644  161.9305 C.ar    1  UNL1        0.0058
     13 C         144.6282  140.7816  162.8809 C.ar    1  UNL1        0.0208
     14 C         145.1716  142.1116  162.4498 C.ar    1  UNL1        0.0984
     15 N         144.8910  142.6244  161.0684 N.ar    1  UNL1       -0.2480
     16 C         144.0670  141.8072  160.1180 C.ar    1  UNL1        0.0623
     17 C         143.7865  142.3200  158.7366 C.3     1  UNL1        0.0522
     18 C         141.2964  132.8374  153.2326 C.ar    1  UNL1        0.1388
     19 C         141.0729  134.2576  152.8046 C.ar    1  UNL1        0.0384
     20 C         141.1801  135.3686  153.8066 C.ar    1  UNL1        0.0223
     21 C         141.5108  135.0596  155.2367 C.ar    1  UNL1        0.0831
     22 C         141.7342  133.6395  155.6648 C.ar    1  UNL1        0.0223
     23 C         141.6270  132.5284  154.6627 C.ar    1  UNL1        0.0384
     24 C         140.0305  130.7755  152.2863 C.3     1  UNL1        0.2525
     25 O         141.1892  131.7263  152.2307 O.3     1  UNL1       -0.4714
     26 C         140.5988  141.0573  160.2186 C.3     1  UNL1        0.1119
     27 C         139.7502  140.7370  161.4132 C.3     1  UNL1        0.0388
     28 C         138.4326  141.4279  161.6042 C.3     1  UNL1        0.0048
     29 C         137.5839  141.1076  162.7989 C.3     1  UNL1        0.0174
     30 C         138.0529  140.0964  163.8026 C.3     1  UNL1        0.0722
     31 N         139.3706  139.4054  163.6116 N.3     1  UNL1       -0.2706
     32 C         140.2192  139.7257  162.4170 C.3     1  UNL1        0.0741
     33 C         139.8396  138.3941  164.6153 C.3     1  UNL1        0.1020
     34 C         141.1049  138.6322  165.3848 C.3     1  UNL1        0.1312
     35 C         142.4611  138.0910  165.0409 C.3     1  UNL1        0.0336
     36 C         143.4307  138.5776  166.0767 C.3     1  UNL1        0.0346
     37 C         142.6739  139.4196  167.0609 C.3     1  UNL1        0.1422
     38 O         141.2366  139.4533  166.6332 O.3     1  UNL1       -0.3548
@<TRIPOS>BOND
     1    24    25    1
     2    25    18    1
     3    18    19   ar
     4    19    20   ar
     5    20    21   ar
     6    21     1    1
     7     1     2   ar
     8     2     3   ar
     9     3     4   ar
    10     4     5   ar
    11     5    11    1
    12    11    12   ar
    13    12    13   ar
    14    13    14   ar
    15    14    15   ar
    16    15    16   ar
    17    16    17    1
    18     5     6   ar
    19     6    26    1
    20    27    26    1
    21    27    28    1
    22    28    29    1
    23    29    30    1
    24    30    31    1
    25    31    33    1
    26    34    33    1
    27    34    35    1
    28    35    36    1
    29    36    37    1
    30    37    38    1
    31    31    32    1
    32     6     7   ar
    33     7     8    2
    34     7     9   ar
    35     9    10   ar
    36    21    22   ar
    37    22    23   ar
    38    23    18   ar
    39    10     1   ar
    40     9     3   ar
    41    16    11   ar
    42    32    27    1
    43    38    34    1
