@<TRIPOS>MOLECULE
*****
 42 46 0 0 0
SMALL
GASTEIGER

@<TRIPOS>ATOM
      1 C         139.1731  142.4044  158.3800 C.ar    1  UNL1        0.1383
      2 C         139.8045  141.6070  157.2774 C.ar    1  UNL1        0.0369
      3 C         139.7748  140.1080  157.3242 C.ar    1  UNL1        0.0028
      4 C         139.1137  139.4065  158.4736 C.ar    1  UNL1       -0.0041
      5 C         138.4823  140.2039  159.5760 C.ar    1  UNL1       -0.0186
      6 C         138.5121  141.7029  159.5292 C.ar    1  UNL1        0.0326
      7 O         139.2029  143.9034  158.3332 O.3     1  UNL1       -0.4751
      8 C         140.4722  144.6175  157.9743 C.3     1  UNL1        0.2118
      9 C         141.2030  145.4158  159.0128 C.3     1  UNL1        0.0960
     10 C         142.5370  143.4398  162.0757 C.ar    1  UNL1        0.2290
     11 N         142.5661  143.7629  160.6112 N.ar    1  UNL1       -0.2129
     12 C         141.5186  144.8030  160.3451 C.ar    1  UNL1        0.0960
     13 C         140.8420  145.1227  161.6451 C.ar    1  UNL1        0.1387
     14 C         139.7311  146.1113  161.8412 C.3     1  UNL1        0.0738
     15 O         141.4715  144.2802  162.7147 O.2     1  UNL1       -0.4392
     16 C         143.6969  140.2614  164.1499 C.ar    1  UNL1        0.1389
     17 C         145.1819  140.4704  164.1823 C.ar    1  UNL1        0.0369
     18 C         145.7852  141.6693  163.5124 C.ar    1  UNL1        0.0033
     19 C         144.9037  142.6590  162.8102 C.ar    1  UNL1        0.0049
     20 C         143.4187  142.4500  162.7779 C.ar    1  UNL1        0.0566
     21 C         142.8153  141.2511  163.4478 C.ar    1  UNL1        0.0415
     22 C         142.7195  139.1233  166.2711 C.3     1  UNL1        0.2525
     23 O         143.0935  139.0625  164.8198 O.3     1  UNL1       -0.4714
     24 C         137.8212  139.5024  160.7253 C.3     1  UNL1        0.0376
     25 C         138.2444  139.8048  162.1321 C.3     1  UNL1        0.1052
     26 C         137.9065  140.8666  163.1364 C.2     1  UNL1        0.2315
     27 O         137.0055  142.0658  163.1496 O.2     1  UNL1       -0.2745
     28 N         138.8428  140.2325  164.1218 N.am    1  UNL1       -0.2546
     29 C         139.1807  139.1707  163.1177 C.3     1  UNL1        0.1249
     30 C         139.2660  140.5350  165.5288 C.ar    1  UNL1        0.0541
     31 C         138.8676  139.6164  166.6457 C.ar    1  UNL1        0.0146
     32 C         139.2908  139.9189  168.0527 C.ar    1  UNL1       -0.0030
     33 C         140.1124  141.1399  168.3427 C.ar    1  UNL1       -0.0227
     34 C         140.5108  142.0584  167.2258 C.ar    1  UNL1       -0.0030
     35 C         140.0876  141.7560  165.8188 C.ar    1  UNL1        0.0146
     36 C         140.5355  141.4423  169.7496 C.3     1  UNL1        0.0189
     37 C         140.3865  142.9102  169.4789 C.3     1  UNL1        0.0044
     38 C         140.6846  139.9745  170.0203 C.3     1  UNL1        0.0044
     39 C         140.9587  141.7448  171.1566 C.3     1  UNL1        0.0044
     40 C         140.0817  137.9715  163.1044 C.2     1  UNL1        0.0692
     41 O         140.3727  137.2379  164.3801 O.co2   1  UNL1       -0.5475
     42 O         140.6917  137.5059  161.8156 O.co2   1  UNL1       -0.5475
@<TRIPOS>UNITY_ATOM_ATTR
41 1
charge -1
@<TRIPOS>BOND
     1    22    23    1
     2    23    16    1
     3    16    17   ar
     4    17    18   ar
     5    18    19   ar
     6    19    20   ar
     7    20    10    1
     8    10    11   ar
     9    11    12   ar
    10    12     9    1
    11     9     8    1
    12     8     7    1
    13     7     1    1
    14     1     2   ar
    15     2     3   ar
    16     3     4   ar
    17     4     5   ar
    18     5    24    1
    19    25    24    1
    20    25    26    1
    21    26    27    2
    22    26    28   am
    23    28    30    1
    24    30    31   ar
    25    31    32   ar
    26    32    33   ar
    27    33    36    1
    28    36    37    1
    29    36    38    1
    30    36    39    1
    31    33    34   ar
    32    34    35   ar
    33    28    29    1
    34    29    40    1
    35    40    41   ar
    36    40    42   ar
    37     5     6   ar
    38    12    13   ar
    39    13    14    1
    40    13    15   ar
    41    20    21   ar
    42    21    16   ar
    43    15    10   ar
    44     6     1   ar
    45    29    25    1
    46    35    30   ar
@<TRIPOS>MOLECULE
*****
 42 46 0 0 0
SMALL
GASTEIGER

@<TRIPOS>ATOM
      1 C         139.5522  142.6820  157.3818 C.ar    1  UNL1        0.1383
      2 C         139.3588  143.4927  156.1346 C.ar    1  UNL1        0.0369
      3 C         139.6689  144.9603  156.1385 C.ar    1  UNL1        0.0028
      4 C         140.1723  145.6172  157.3896 C.ar    1  UNL1       -0.0041
      5 C         140.3657  144.8065  158.6367 C.ar    1  UNL1       -0.0186
      6 C         140.0556  143.3389  158.6328 C.ar    1  UNL1        0.0326
      7 O         139.2421  141.2144  157.3779 O.3     1  UNL1       -0.4751
      8 C         138.7989  140.5382  158.6413 C.3     1  UNL1        0.2118
      9 C         139.4641  139.2694  159.0861 C.3     1  UNL1        0.0960
     10 C         141.0156  138.9018  162.6249 C.ar    1  UNL1        0.2290
     11 N         141.1487  139.1963  161.1601 N.ar    1  UNL1       -0.2129
     12 C         139.7917  139.0624  160.5351 C.ar    1  UNL1        0.0960
     13 C         138.8199  138.6853  161.6137 C.ar    1  UNL1        0.1387
     14 C         137.3497  138.4489  161.4325 C.3     1  UNL1        0.0738
     15 O         139.5762  138.5860  162.9052 O.2     1  UNL1       -0.4392
     16 C         144.4708  139.7527  164.3821 C.ar    1  UNL1        0.1389
     17 C         144.3489  138.9564  165.6474 C.ar    1  UNL1        0.0369
     18 C         143.1160  138.1420  165.9053 C.ar    1  UNL1        0.0033
     19 C         142.0049  138.1237  164.8978 C.ar    1  UNL1        0.0049
     20 C         142.1267  138.9200  163.6324 C.ar    1  UNL1        0.0566
     21 C         143.3597  139.7345  163.3746 C.ar    1  UNL1        0.0415
     22 C         145.5804  141.9982  163.6921 C.3     1  UNL1        0.2525
     23 O         145.7037  140.5671  164.1242 O.3     1  UNL1       -0.4714
     24 C         140.8692  145.4634  159.8877 C.3     1  UNL1        0.0376
     25 C         140.9398  144.6844  161.1675 C.3     1  UNL1        0.1052
     26 C         142.0446  144.2454  162.0825 C.2     1  UNL1        0.2315
     27 O         143.5362  144.4036  162.0964 O.2     1  UNL1       -0.2745
     28 N         141.0399  143.5827  162.9776 N.am    1  UNL1       -0.2546
     29 C         139.9352  144.0216  162.0627 C.3     1  UNL1        0.1249
     30 C         141.1106  142.8037  164.2575 C.ar    1  UNL1        0.0541
     31 C         142.3103  142.9325  165.1486 C.ar    1  UNL1        0.0146
     32 C         142.3810  142.1535  166.4285 C.ar    1  UNL1       -0.0030
     33 C         141.2520  141.2456  166.8173 C.ar    1  UNL1       -0.0227
     34 C         140.0523  141.1167  165.9261 C.ar    1  UNL1       -0.0030
     35 C         139.9816  141.8958  164.6462 C.ar    1  UNL1        0.0146
     36 C         141.3227  140.4665  168.0972 C.3     1  UNL1        0.0189
     37 C         139.9319  139.9558  167.8631 C.3     1  UNL1        0.0044
     38 C         142.7135  140.9773  168.3312 C.3     1  UNL1        0.0044
     39 C         141.3934  139.6875  169.3771 C.3     1  UNL1        0.0044
     40 C         138.4436  143.8634  162.0488 C.2     1  UNL1        0.0692
     41 O         137.5813  144.8131  162.8265 O.co2   1  UNL1       -0.5475
     42 O         137.8143  142.7555  161.2573 O.co2   1  UNL1       -0.5475
@<TRIPOS>UNITY_ATOM_ATTR
41 1
charge -1
@<TRIPOS>BOND
     1    22    23    1
     2    23    16    1
     3    16    17   ar
     4    17    18   ar
     5    18    19   ar
     6    19    20   ar
     7    20    10    1
     8    10    11   ar
     9    11    12   ar
    10    12     9    1
    11     9     8    1
    12     8     7    1
    13     7     1    1
    14     1     2   ar
    15     2     3   ar
    16     3     4   ar
    17     4     5   ar
    18     5    24    1
    19    25    24    1
    20    25    26    1
    21    26    27    2
    22    26    28   am
    23    28    30    1
    24    30    31   ar
    25    31    32   ar
    26    32    33   ar
    27    33    36    1
    28    36    37    1
    29    36    38    1
    30    36    39    1
    31    33    34   ar
    32    34    35   ar
    33    28    29    1
    34    29    40    1
    35    40    41   ar
    36    40    42   ar
    37     5     6   ar
    38    12    13   ar
    39    13    14    1
    40    13    15   ar
    41    20    21   ar
    42    21    16   ar
    43    15    10   ar
    44     6     1   ar
    45    29    25    1
    46    35    30   ar
@<TRIPOS>MOLECULE
*****
 42 46 0 0 0
SMALL
GASTEIGER

@<TRIPOS>ATOM
      1 C         140.5051  141.9958  157.9216 C.ar    1  UNL1        0.1383
      2 C         140.0383  142.5645  156.6144 C.ar    1  UNL1        0.0369
      3 C         139.8224  144.0422  156.4739 C.ar    1  UNL1        0.0028
      4 C         140.0733  144.9511  157.6406 C.ar    1  UNL1       -0.0041
      5 C         140.5400  144.3824  158.9477 C.ar    1  UNL1       -0.0186
      6 C         140.7559  142.9046  159.0882 C.ar    1  UNL1        0.0326
      7 O         140.7210  140.5180  158.0621 O.3     1  UNL1       -0.4751
      8 C         141.8770  139.8597  157.3691 C.3     1  UNL1        0.2118
      9 C         143.1682  139.6463  158.1021 C.3     1  UNL1        0.0960
     10 C         143.1772  140.0483  161.9626 C.ar    1  UNL1        0.2290
     11 N         142.8693  139.2525  160.7290 N.ar    1  UNL1       -0.2129
     12 C         143.2926  140.0607  159.5383 C.ar    1  UNL1        0.0960
     13 C         143.8622  141.3560  160.0361 C.ar    1  UNL1        0.1387
     14 C         144.4073  142.4644  159.1850 C.3     1  UNL1        0.0738
     15 O         143.7908  141.3484  161.5344 O.2     1  UNL1       -0.4392
     16 C         141.2573  139.1931  165.3290 C.ar    1  UNL1        0.1389
     17 C         142.3970  138.7616  166.2036 C.ar    1  UNL1        0.0369
     18 C         143.7968  138.7589  165.6645 C.ar    1  UNL1        0.0033
     19 C         144.0569  139.1878  164.2508 C.ar    1  UNL1        0.0049
     20 C         142.9172  139.6194  163.3763 C.ar    1  UNL1        0.0566
     21 C         141.5174  139.6221  163.9154 C.ar    1  UNL1        0.0415
     22 C         138.7652  138.4887  165.1221 C.3     1  UNL1        0.2525
     23 O         139.8576  139.1958  165.8681 O.3     1  UNL1       -0.4714
     24 C         140.7909  145.2913  160.1143 C.3     1  UNL1        0.0376
     25 C         141.0075  144.7141  161.4817 C.3     1  UNL1        0.1052
     26 C         142.2065  144.4471  162.3426 C.2     1  UNL1        0.2315
     27 O         143.6856  144.6468  162.1926 O.2     1  UNL1       -0.2745
     28 N         141.3139  143.8978  163.4156 N.am    1  UNL1       -0.2546
     29 C         140.1148  144.1648  162.5547 C.3     1  UNL1        0.1249
     30 C         141.5305  143.3207  164.7830 C.ar    1  UNL1        0.0541
     31 C         142.9053  142.8997  165.2103 C.ar    1  UNL1        0.0146
     32 C         143.1220  142.3226  166.5778 C.ar    1  UNL1       -0.0030
     33 C         141.9637  142.1663  167.5180 C.ar    1  UNL1       -0.0227
     34 C         140.5889  142.5872  167.0907 C.ar    1  UNL1       -0.0030
     35 C         140.3722  143.1644  165.7232 C.ar    1  UNL1        0.0146
     36 C         142.1803  141.5891  168.8854 C.3     1  UNL1        0.0189
     37 C         140.8599  140.8829  168.7965 C.3     1  UNL1        0.0044
     38 C         143.5007  142.2953  168.9744 C.3     1  UNL1        0.0044
     39 C         142.3970  141.0119  170.2529 C.3     1  UNL1        0.0044
     40 C         138.6357  143.9651  162.7048 C.2     1  UNL1        0.0692
     41 O         137.9266  144.4940  163.9162 O.co2   1  UNL1       -0.5475
     42 O         137.8658  143.2366  161.6434 O.co2   1  UNL1       -0.5475
@<TRIPOS>UNITY_ATOM_ATTR
41 1
charge -1
@<TRIPOS>BOND
     1    22    23    1
     2    23    16    1
     3    16    17   ar
     4    17    18   ar
     5    18    19   ar
     6    19    20   ar
     7    20    10    1
     8    10    11   ar
     9    11    12   ar
    10    12     9    1
    11     9     8    1
    12     8     7    1
    13     7     1    1
    14     1     2   ar
    15     2     3   ar
    16     3     4   ar
    17     4     5   ar
    18     5    24    1
    19    25    24    1
    20    25    26    1
    21    26    27    2
    22    26    28   am
    23    28    30    1
    24    30    31   ar
    25    31    32   ar
    26    32    33   ar
    27    33    36    1
    28    36    37    1
    29    36    38    1
    30    36    39    1
    31    33    34   ar
    32    34    35   ar
    33    28    29    1
    34    29    40    1
    35    40    41   ar
    36    40    42   ar
    37     5     6   ar
    38    12    13   ar
    39    13    14    1
    40    13    15   ar
    41    20    21   ar
    42    21    16   ar
    43    15    10   ar
    44     6     1   ar
    45    29    25    1
    46    35    30   ar
@<TRIPOS>MOLECULE
*****
 42 46 0 0 0
SMALL
GASTEIGER

@<TRIPOS>ATOM
      1 C         141.2234  142.7801  157.5854 C.ar    1  UNL1        0.1383
      2 C         141.0426  143.5637  156.3192 C.ar    1  UNL1        0.0369
      3 C         140.6281  145.0040  156.3813 C.ar    1  UNL1        0.0028
      4 C         140.3943  145.6605  157.7096 C.ar    1  UNL1       -0.0041
      5 C         140.5751  144.8769  158.9758 C.ar    1  UNL1       -0.0186
      6 C         140.9897  143.4367  158.9136 C.ar    1  UNL1        0.0326
      7 O         141.6379  141.3398  157.5233 O.3     1  UNL1       -0.4751
      8 C         140.6537  140.2941  157.0901 C.3     1  UNL1        0.2118
      9 C         139.8534  139.5469  158.1154 C.3     1  UNL1        0.0960
     10 C         140.9856  139.8077  161.8188 C.ar    1  UNL1        0.2290
     11 N         141.1644  139.2733  160.4287 N.ar    1  UNL1       -0.2129
     12 C         140.0601  139.8229  159.5752 C.ar    1  UNL1        0.0960
     13 C         139.1988  140.6969  160.4379 C.ar    1  UNL1        0.1387
     14 C         137.9795  141.4485  159.9922 C.3     1  UNL1        0.0738
     15 O         139.7708  140.6875  161.8245 O.2     1  UNL1       -0.4392
     16 C         144.1305  139.7988  164.2394 C.ar    1  UNL1        0.1389
     17 C         143.6296  138.9260  165.3518 C.ar    1  UNL1        0.0369
     18 C         142.2473  138.3472  165.2865 C.ar    1  UNL1        0.0033
     19 C         141.3660  138.6410  164.1089 C.ar    1  UNL1        0.0049
     20 C         141.8669  139.5138  162.9965 C.ar    1  UNL1        0.0566
     21 C         143.2492  140.0927  163.0618 C.ar    1  UNL1        0.0415
     22 C         145.7694  141.7656  163.7971 C.3     1  UNL1        0.2525
     23 O         145.5128  140.3777  164.3047 O.3     1  UNL1       -0.4714
     24 C         140.3414  145.5335  160.3040 C.3     1  UNL1        0.0376
     25 C         140.4596  144.7334  161.5672 C.3     1  UNL1        0.1052
     26 C         139.4857  144.1205  162.5296 C.2     1  UNL1        0.2315
     27 O         137.9904  144.0538  162.6273 O.2     1  UNL1       -0.2745
     28 N         140.6266  143.6019  163.3538 N.am    1  UNL1       -0.2546
     29 C         141.6005  144.2148  162.3915 C.3     1  UNL1        0.1249
     30 C         140.7448  142.8018  164.6171 C.ar    1  UNL1        0.0541
     31 C         142.0167  142.8375  165.4113 C.ar    1  UNL1        0.0146
     32 C         142.1349  142.0374  166.6746 C.ar    1  UNL1       -0.0030
     33 C         140.9811  141.2015  167.1436 C.ar    1  UNL1       -0.0227
     34 C         139.7091  141.1657  166.3494 C.ar    1  UNL1       -0.0030
     35 C         139.5910  141.9659  165.0861 C.ar    1  UNL1        0.0146
     36 C         141.0992  140.4014  168.4069 C.3     1  UNL1        0.0189
     37 C         139.6159  140.1781  168.4042 C.3     1  UNL1        0.0044
     38 C         142.5825  140.6247  168.4096 C.3     1  UNL1        0.0044
     39 C         141.2174  139.6013  169.6702 C.3     1  UNL1        0.0044
     40 C         143.0958  144.2814  162.2938 C.2     1  UNL1        0.0692
     41 O         143.8790  145.0674  163.3033 O.co2   1  UNL1       -0.5475
     42 O         143.8079  143.5622  161.1868 O.co2   1  UNL1       -0.5475
@<TRIPOS>UNITY_ATOM_ATTR
41 1
charge -1
@<TRIPOS>BOND
     1    22    23    1
     2    23    16    1
     3    16    17   ar
     4    17    18   ar
     5    18    19   ar
     6    19    20   ar
     7    20    10    1
     8    10    11   ar
     9    11    12   ar
    10    12     9    1
    11     9     8    1
    12     8     7    1
    13     7     1    1
    14     1     2   ar
    15     2     3   ar
    16     3     4   ar
    17     4     5   ar
    18     5    24    1
    19    25    24    1
    20    25    26    1
    21    26    27    2
    22    26    28   am
    23    28    30    1
    24    30    31   ar
    25    31    32   ar
    26    32    33   ar
    27    33    36    1
    28    36    37    1
    29    36    38    1
    30    36    39    1
    31    33    34   ar
    32    34    35   ar
    33    28    29    1
    34    29    40    1
    35    40    41   ar
    36    40    42   ar
    37     5     6   ar
    38    12    13   ar
    39    13    14    1
    40    13    15   ar
    41    20    21   ar
    42    21    16   ar
    43    15    10   ar
    44     6     1   ar
    45    29    25    1
    46    35    30   ar
@<TRIPOS>MOLECULE
*****
 42 46 0 0 0
SMALL
GASTEIGER

@<TRIPOS>ATOM
      1 C         142.7218  140.5353  158.1355 C.ar    1  UNL1        0.1383
      2 C         142.0992  139.4086  157.3654 C.ar    1  UNL1        0.0369
      3 C         142.1375  138.0134  157.9149 C.ar    1  UNL1        0.0028
      4 C         142.7986  137.7449  159.2345 C.ar    1  UNL1       -0.0041
      5 C         143.4212  138.8715  160.0044 C.ar    1  UNL1       -0.0186
      6 C         143.3828  140.2668  159.4549 C.ar    1  UNL1        0.0326
      7 O         142.6835  141.9305  157.5860 O.3     1  UNL1       -0.4751
      8 C         141.7230  142.2777  156.4874 C.3     1  UNL1        0.2118
      9 C         140.3179  142.6840  156.8202 C.3     1  UNL1        0.0960
     10 C         139.2864  143.4029  160.4924 C.ar    1  UNL1        0.2290
     11 N         139.4545  142.4577  159.3398 N.ar    1  UNL1       -0.2129
     12 C         139.9983  143.2353  158.1781 C.ar    1  UNL1        0.0960
     13 C         140.1663  144.6612  158.6127 C.ar    1  UNL1        0.1387
     14 C         140.6834  145.7860  157.7657 C.3     1  UNL1        0.0738
     15 O         139.7263  144.7647  160.0430 O.2     1  UNL1       -0.4392
     16 C         138.1986  141.2585  163.6496 C.ar    1  UNL1        0.1389
     17 C         137.7349  142.3395  164.5804 C.ar    1  UNL1        0.0369
     18 C         137.7884  143.7750  164.1485 C.ar    1  UNL1        0.0033
     19 C         138.3056  144.1295  162.7859 C.ar    1  UNL1        0.0049
     20 C         138.7692  143.0485  161.8551 C.ar    1  UNL1        0.0566
     21 C         138.7158  141.6130  162.2870 C.ar    1  UNL1        0.0415
     22 C         138.3569  139.4650  165.5226 C.3     1  UNL1        0.2525
     23 O         138.1451  139.8230  164.0815 O.3     1  UNL1       -0.4714
     24 C         144.0822  138.6030  161.3239 C.3     1  UNL1        0.0376
     25 C         143.4753  139.1341  162.5886 C.3     1  UNL1        0.1052
     26 C         143.7850  140.2699  163.5182 C.2     1  UNL1        0.2315
     27 O         144.8299  141.3450  163.5681 O.2     1  UNL1       -0.2745
     28 N         142.6171  139.8853  164.3772 N.am    1  UNL1       -0.2546
     29 C         142.3074  138.7496  163.4476 C.3     1  UNL1        0.1249
     30 C         142.0102  140.4165  165.6419 C.ar    1  UNL1        0.0541
     31 C         142.1448  139.6438  166.9205 C.ar    1  UNL1        0.0146
     32 C         141.5379  140.1749  168.1853 C.ar    1  UNL1       -0.0030
     33 C         140.7964  141.4788  168.1715 C.ar    1  UNL1       -0.0227
     34 C         140.6618  142.2514  166.8929 C.ar    1  UNL1       -0.0030
     35 C         141.2687  141.7203  165.6281 C.ar    1  UNL1        0.0146
     36 C         140.1895  142.0099  169.4362 C.3     1  UNL1        0.0189
     37 C         140.9178  143.3067  169.2411 C.3     1  UNL1        0.0044
     38 C         139.4612  140.7131  169.6314 C.3     1  UNL1        0.0044
     39 C         139.5826  142.5411  170.7010 C.3     1  UNL1        0.0044
     40 C         141.2625  137.6745  163.3977 C.2     1  UNL1        0.0692
     41 O         141.0013  136.8258  164.6067 O.co2   1  UNL1       -0.5475
     42 O         140.4788  137.4481  162.1389 O.co2   1  UNL1       -0.5475
@<TRIPOS>UNITY_ATOM_ATTR
41 1
charge -1
@<TRIPOS>BOND
     1    22    23    1
     2    23    16    1
     3    16    17   ar
     4    17    18   ar
     5    18    19   ar
     6    19    20   ar
     7    20    10    1
     8    10    11   ar
     9    11    12   ar
    10    12     9    1
    11     9     8    1
    12     8     7    1
    13     7     1    1
    14     1     2   ar
    15     2     3   ar
    16     3     4   ar
    17     4     5   ar
    18     5    24    1
    19    25    24    1
    20    25    26    1
    21    26    27    2
    22    26    28   am
    23    28    30    1
    24    30    31   ar
    25    31    32   ar
    26    32    33   ar
    27    33    36    1
    28    36    37    1
    29    36    38    1
    30    36    39    1
    31    33    34   ar
    32    34    35   ar
    33    28    29    1
    34    29    40    1
    35    40    41   ar
    36    40    42   ar
    37     5     6   ar
    38    12    13   ar
    39    13    14    1
    40    13    15   ar
    41    20    21   ar
    42    21    16   ar
    43    15    10   ar
    44     6     1   ar
    45    29    25    1
    46    35    30   ar
@<TRIPOS>MOLECULE
*****
 42 46 0 0 0
SMALL
GASTEIGER

@<TRIPOS>ATOM
      1 C         139.2757  142.0477  158.0304 C.ar    1  UNL1        0.1383
      2 C         140.1408  141.0171  157.3676 C.ar    1  UNL1        0.0369
      3 C         140.1269  139.5992  157.8570 C.ar    1  UNL1        0.0028
      4 C         139.2478  139.2121  159.0093 C.ar    1  UNL1       -0.0041
      5 C         138.3827  140.2427  159.6720 C.ar    1  UNL1       -0.0186
      6 C         138.3967  141.6606  159.1826 C.ar    1  UNL1        0.0326
      7 O         139.2896  143.4656  157.5410 O.3     1  UNL1       -0.4751
      8 C         140.5406  144.2856  157.6535 C.3     1  UNL1        0.2118
      9 C         140.7131  145.2371  158.8002 C.3     1  UNL1        0.0960
     10 C         142.4324  143.4836  161.8060 C.ar    1  UNL1        0.2290
     11 N         142.2420  143.6657  160.3293 N.ar    1  UNL1       -0.2129
     12 C         141.2103  144.7348  160.1233 C.ar    1  UNL1        0.0960
     13 C         140.7630  145.2135  161.4727 C.ar    1  UNL1        0.1387
     14 C         139.7400  146.2784  161.7360 C.3     1  UNL1        0.0738
     15 O         141.5183  144.4402  162.5127 O.2     1  UNL1       -0.4392
     16 C         144.1273  140.0711  162.9161 C.ar    1  UNL1        0.1389
     17 C         145.2509  140.5776  163.7710 C.ar    1  UNL1        0.0369
     18 C         145.4351  142.0528  163.9709 C.ar    1  UNL1        0.0033
     19 C         144.4956  143.0215  163.3159 C.ar    1  UNL1        0.0049
     20 C         143.3720  142.5149  162.4611 C.ar    1  UNL1        0.0566
     21 C         143.1878  141.0398  162.2611 C.ar    1  UNL1        0.0415
     22 C         142.7244  138.0812  162.0096 C.3     1  UNL1        0.2525
     23 O         143.9432  138.5959  162.7162 O.3     1  UNL1       -0.4714
     24 C         137.5037  139.8556  160.8241 C.3     1  UNL1        0.0376
     25 C         137.9875  140.0407  162.2318 C.3     1  UNL1        0.1052
     26 C         138.5479  139.1354  163.2885 C.2     1  UNL1        0.2315
     27 O         138.8566  137.6701  163.3751 O.2     1  UNL1       -0.2745
     28 N         138.6716  140.3024  164.2226 N.am    1  UNL1       -0.2546
     29 C         138.1112  141.2077  163.1660 C.3     1  UNL1        0.1249
     30 C         139.1554  140.4875  165.6304 C.ar    1  UNL1        0.0541
     31 C         138.6745  139.5703  166.7154 C.ar    1  UNL1        0.0146
     32 C         139.1582  139.7554  168.1232 C.ar    1  UNL1       -0.0030
     33 C         140.1229  140.8577  168.4459 C.ar    1  UNL1       -0.0227
     34 C         140.6038  141.7750  167.3608 C.ar    1  UNL1       -0.0030
     35 C         140.1201  141.5899  165.9531 C.ar    1  UNL1        0.0146
     36 C         140.6067  141.0428  169.8536 C.3     1  UNL1        0.0189
     37 C         141.2650  139.6958  169.8045 C.3     1  UNL1        0.0044
     38 C         139.9484  142.3898  169.9027 C.3     1  UNL1        0.0044
     39 C         141.0905  141.2279  171.2614 C.3     1  UNL1        0.0044
     40 C         137.8025  142.6731  163.0794 C.2     1  UNL1        0.0692
     41 O         137.7201  143.3443  161.7405 O.co2   1  UNL1       -0.5475
     42 O         137.5762  143.4671  164.3317 O.co2   1  UNL1       -0.5475
@<TRIPOS>UNITY_ATOM_ATTR
41 1
charge -1
@<TRIPOS>BOND
     1    22    23    1
     2    23    16    1
     3    16    17   ar
     4    17    18   ar
     5    18    19   ar
     6    19    20   ar
     7    20    10    1
     8    10    11   ar
     9    11    12   ar
    10    12     9    1
    11     9     8    1
    12     8     7    1
    13     7     1    1
    14     1     2   ar
    15     2     3   ar
    16     3     4   ar
    17     4     5   ar
    18     5    24    1
    19    25    24    1
    20    25    26    1
    21    26    27    2
    22    26    28   am
    23    28    30    1
    24    30    31   ar
    25    31    32   ar
    26    32    33   ar
    27    33    36    1
    28    36    37    1
    29    36    38    1
    30    36    39    1
    31    33    34   ar
    32    34    35   ar
    33    28    29    1
    34    29    40    1
    35    40    41   ar
    36    40    42   ar
    37     5     6   ar
    38    12    13   ar
    39    13    14    1
    40    13    15   ar
    41    20    21   ar
    42    21    16   ar
    43    15    10   ar
    44     6     1   ar
    45    29    25    1
    46    35    30   ar
@<TRIPOS>MOLECULE
*****
 42 46 0 0 0
SMALL
GASTEIGER

@<TRIPOS>ATOM
      1 C         142.7695  139.0364  157.9238 C.ar    1  UNL1        0.1383
      2 C         142.4775  138.0026  156.8768 C.ar    1  UNL1        0.0369
      3 C         141.1119  137.3881  156.7900 C.ar    1  UNL1        0.0028
      4 C         140.0384  137.8073  157.7502 C.ar    1  UNL1       -0.0041
      5 C         140.3304  138.8410  158.7971 C.ar    1  UNL1       -0.0186
      6 C         141.6960  139.4556  158.8839 C.ar    1  UNL1        0.0326
      7 O         144.1351  139.6509  158.0107 O.3     1  UNL1       -0.4751
      8 C         144.5006  140.7961  157.1136 C.3     1  UNL1        0.2118
      9 C         143.6905  142.0583  157.1408 C.3     1  UNL1        0.0960
     10 C         143.3991  143.2853  160.8116 C.ar    1  UNL1        0.2290
     11 N         143.9359  142.3284  159.7888 N.ar    1  UNL1       -0.2129
     12 C         143.4061  142.7389  158.4468 C.ar    1  UNL1        0.0960
     13 C         142.5419  143.9497  158.6403 C.ar    1  UNL1        0.1387
     14 C         141.8105  144.6923  157.5617 C.3     1  UNL1        0.0738
     15 O         142.5376  144.2873  160.1018 O.2     1  UNL1       -0.4392
     16 C         144.2053  141.8967  164.4409 C.ar    1  UNL1        0.1389
     17 C         144.2280  143.1702  165.2331 C.ar    1  UNL1        0.0369
     18 C         143.9744  144.4821  164.5515 C.ar    1  UNL1        0.0033
     19 C         143.6981  144.5205  163.0777 C.ar    1  UNL1        0.0049
     20 C         143.6754  143.2470  162.2855 C.ar    1  UNL1        0.0566
     21 C         143.9290  141.9351  162.9671 C.ar    1  UNL1        0.0415
     22 C         144.4835  139.3163  164.3224 C.3     1  UNL1        0.2525
     23 O         144.4589  140.5848  165.1225 O.3     1  UNL1       -0.4714
     24 C         139.2569  139.2602  159.7572 C.3     1  UNL1        0.0376
     25 C         139.6254  139.7626  161.1216 C.3     1  UNL1        0.1052
     26 C         140.6555  139.3903  162.1465 C.2     1  UNL1        0.2315
     27 O         141.7436  138.3614  162.2315 O.2     1  UNL1       -0.2745
     28 N         140.1466  140.4731  163.0512 N.am    1  UNL1       -0.2546
     29 C         139.1165  140.8454  162.0264 C.3     1  UNL1        0.1249
     30 C         140.5151  140.9755  164.4157 C.ar    1  UNL1        0.0541
     31 C         140.3684  142.4318  164.7436 C.ar    1  UNL1        0.0146
     32 C         140.7369  142.9342  166.1081 C.ar    1  UNL1       -0.0030
     33 C         141.2522  141.9802  167.1447 C.ar    1  UNL1       -0.0227
     34 C         141.3989  140.5239  166.8168 C.ar    1  UNL1       -0.0030
     35 C         141.0304  140.0215  165.4523 C.ar    1  UNL1        0.0146
     36 C         141.6207  142.4826  168.5092 C.3     1  UNL1        0.0189
     37 C         140.3108  143.2084  168.5958 C.3     1  UNL1        0.0044
     38 C         142.9306  141.7569  168.4226 C.3     1  UNL1        0.0044
     39 C         141.9893  142.9850  169.8737 C.3     1  UNL1        0.0044
     40 C         138.0283  141.8743  161.9414 C.2     1  UNL1        0.0692
     41 O         138.0855  142.9412  160.8885 O.co2   1  UNL1       -0.5475
     42 O         136.8831  141.8364  162.9093 O.co2   1  UNL1       -0.5475
@<TRIPOS>UNITY_ATOM_ATTR
41 1
charge -1
@<TRIPOS>BOND
     1    22    23    1
     2    23    16    1
     3    16    17   ar
     4    17    18   ar
     5    18    19   ar
     6    19    20   ar
     7    20    10    1
     8    10    11   ar
     9    11    12   ar
    10    12     9    1
    11     9     8    1
    12     8     7    1
    13     7     1    1
    14     1     2   ar
    15     2     3   ar
    16     3     4   ar
    17     4     5   ar
    18     5    24    1
    19    25    24    1
    20    25    26    1
    21    26    27    2
    22    26    28   am
    23    28    30    1
    24    30    31   ar
    25    31    32   ar
    26    32    33   ar
    27    33    36    1
    28    36    37    1
    29    36    38    1
    30    36    39    1
    31    33    34   ar
    32    34    35   ar
    33    28    29    1
    34    29    40    1
    35    40    41   ar
    36    40    42   ar
    37     5     6   ar
    38    12    13   ar
    39    13    14    1
    40    13    15   ar
    41    20    21   ar
    42    21    16   ar
    43    15    10   ar
    44     6     1   ar
    45    29    25    1
    46    35    30   ar
@<TRIPOS>MOLECULE
*****
 42 46 0 0 0
SMALL
GASTEIGER

@<TRIPOS>ATOM
      1 C         140.4523  143.3713  156.7152 C.ar    1  UNL1        0.1383
      2 C         141.4098  144.1727  155.8839 C.ar    1  UNL1        0.0369
      3 C         142.0103  145.4315  156.4360 C.ar    1  UNL1        0.0028
      4 C         141.6534  145.8888  157.8194 C.ar    1  UNL1       -0.0041
      5 C         140.6960  145.0874  158.6506 C.ar    1  UNL1       -0.0186
      6 C         140.0955  143.8286  158.0985 C.ar    1  UNL1        0.0326
      7 O         139.8518  142.1125  156.1631 O.3     1  UNL1       -0.4751
      8 C         138.8076  141.3734  156.9463 C.3     1  UNL1        0.2118
      9 C         139.0526  139.9561  157.3718 C.3     1  UNL1        0.0960
     10 C         140.3986  139.0469  160.8970 C.ar    1  UNL1        0.2290
     11 N         139.2648  139.2004  159.9270 N.ar    1  UNL1       -0.2129
     12 C         139.8325  139.6722  158.6212 C.ar    1  UNL1        0.0960
     13 C         141.3173  139.8104  158.7843 C.ar    1  UNL1        0.1387
     14 C         142.2827  140.2566  157.7265 C.3     1  UNL1        0.0738
     15 O         141.6671  139.4239  160.1908 O.2     1  UNL1       -0.4392
     16 C         139.1372  138.7570  164.6487 C.ar    1  UNL1        0.1389
     17 C         140.0546  137.6934  165.1748 C.ar    1  UNL1        0.0369
     18 C         141.0867  137.0809  164.2751 C.ar    1  UNL1        0.0033
     19 C         141.2014  137.5321  162.8491 C.ar    1  UNL1        0.0049
     20 C         140.2839  138.5957  162.3230 C.ar    1  UNL1        0.0566
     21 C         139.2518  139.2082  163.2228 C.ar    1  UNL1        0.0415
     22 C         138.1418  139.1010  167.0237 C.3     1  UNL1        0.2525
     23 O         138.1050  139.3695  165.5485 O.3     1  UNL1       -0.4714
     24 C         140.3391  145.5447  160.0339 C.3     1  UNL1        0.0376
     25 C         140.6216  144.6607  161.2122 C.3     1  UNL1        0.1052
     26 C         141.8565  144.2503  161.9585 C.2     1  UNL1        0.2315
     27 O         143.3203  144.5540  161.8354 O.2     1  UNL1       -0.2745
     28 N         141.0212  143.4105  162.8787 N.am    1  UNL1       -0.2546
     29 C         139.7864  143.8208  162.1325 C.3     1  UNL1        0.1249
     30 C         141.3037  142.5264  164.0572 C.ar    1  UNL1        0.0541
     31 C         142.2833  141.3976  163.9302 C.ar    1  UNL1        0.0146
     32 C         142.5658  140.5135  165.1086 C.ar    1  UNL1       -0.0030
     33 C         141.8688  140.7583  166.4140 C.ar    1  UNL1       -0.0227
     34 C         140.8892  141.8871  166.5410 C.ar    1  UNL1       -0.0030
     35 C         140.6067  142.7712  165.3626 C.ar    1  UNL1        0.0146
     36 C         142.1513  139.8743  167.5924 C.3     1  UNL1        0.0189
     37 C         143.0449  139.0231  166.7397 C.3     1  UNL1        0.0044
     38 C         141.2577  140.7254  168.4452 C.3     1  UNL1        0.0044
     39 C         142.4338  138.9902  168.7709 C.3     1  UNL1        0.0044
     40 C         138.3226  143.5171  162.2557 C.2     1  UNL1        0.0692
     41 O         137.3915  144.5377  162.8402 O.co2   1  UNL1       -0.5475
     42 O         137.7900  142.1930  161.7943 O.co2   1  UNL1       -0.5475
@<TRIPOS>UNITY_ATOM_ATTR
41 1
charge -1
@<TRIPOS>BOND
     1    22    23    1
     2    23    16    1
     3    16    17   ar
     4    17    18   ar
     5    18    19   ar
     6    19    20   ar
     7    20    10    1
     8    10    11   ar
     9    11    12   ar
    10    12     9    1
    11     9     8    1
    12     8     7    1
    13     7     1    1
    14     1     2   ar
    15     2     3   ar
    16     3     4   ar
    17     4     5   ar
    18     5    24    1
    19    25    24    1
    20    25    26    1
    21    26    27    2
    22    26    28   am
    23    28    30    1
    24    30    31   ar
    25    31    32   ar
    26    32    33   ar
    27    33    36    1
    28    36    37    1
    29    36    38    1
    30    36    39    1
    31    33    34   ar
    32    34    35   ar
    33    28    29    1
    34    29    40    1
    35    40    41   ar
    36    40    42   ar
    37     5     6   ar
    38    12    13   ar
    39    13    14    1
    40    13    15   ar
    41    20    21   ar
    42    21    16   ar
    43    15    10   ar
    44     6     1   ar
    45    29    25    1
    46    35    30   ar
@<TRIPOS>MOLECULE
*****
 42 46 0 0 0
SMALL
GASTEIGER

@<TRIPOS>ATOM
      1 C         139.0271  139.7932  166.3555 C.ar    1  UNL1        0.1383
      2 C         139.5315  139.8356  167.7675 C.ar    1  UNL1        0.0369
      3 C         140.3603  140.9959  168.2332 C.ar    1  UNL1        0.0028
      4 C         140.6847  142.1136  167.2869 C.ar    1  UNL1       -0.0041
      5 C         140.1804  142.0711  165.8749 C.ar    1  UNL1       -0.0186
      6 C         139.3516  140.9109  165.4092 C.ar    1  UNL1        0.0326
      7 O         138.1983  138.6329  165.8897 O.3     1  UNL1       -0.4751
      8 C         138.7913  137.6103  164.9664 C.3     1  UNL1        0.2118
      9 C         140.2797  137.5204  164.8035 C.3     1  UNL1        0.0960
     10 C         141.4443  138.4660  161.2237 C.ar    1  UNL1        0.2290
     11 N         140.5228  137.7289  162.1498 N.ar    1  UNL1       -0.2129
     12 C         140.9310  138.0447  163.5582 C.ar    1  UNL1        0.0960
     13 C         142.1048  138.9770  163.5025 C.ar    1  UNL1        0.1387
     14 C         142.8335  139.5485  164.6825 C.3     1  UNL1        0.0738
     15 O         142.4221  139.2373  162.0597 O.2     1  UNL1       -0.4392
     16 C         142.5108  137.8639  157.4487 C.ar    1  UNL1        0.1389
     17 C         141.3007  138.3783  156.7268 C.ar    1  UNL1        0.0369
     18 C         140.1386  138.9220  157.5039 C.ar    1  UNL1        0.0033
     19 C         140.1864  138.9512  159.0028 C.ar    1  UNL1        0.0049
     20 C         141.3964  138.4368  159.7247 C.ar    1  UNL1        0.0566
     21 C         142.5586  137.8931  158.9476 C.ar    1  UNL1        0.0415
     22 C         143.6814  135.8832  156.2419 C.3     1  UNL1        0.2525
     23 O         143.6730  137.3203  156.6717 O.3     1  UNL1       -0.4714
     24 C         140.5048  143.1888  164.9286 C.3     1  UNL1        0.0376
     25 C         141.0129  142.8817  163.5512 C.3     1  UNL1        0.1052
     26 C         140.4188  142.2835  162.3104 C.2     1  UNL1        0.2315
     27 O         139.0706  141.7448  161.9334 O.2     1  UNL1       -0.2745
     28 N         141.7313  142.4472  161.6031 N.am    1  UNL1       -0.2546
     29 C         142.3254  143.0454  162.8438 C.3     1  UNL1        0.1249
     30 C         142.2393  142.1400  160.2256 C.ar    1  UNL1        0.0541
     31 C         143.5973  141.5289  160.0460 C.ar    1  UNL1        0.0146
     32 C         144.1053  141.2217  158.6684 C.ar    1  UNL1       -0.0030
     33 C         143.2554  141.5257  157.4705 C.ar    1  UNL1       -0.0227
     34 C         141.8974  142.1369  157.6501 C.ar    1  UNL1       -0.0030
     35 C         141.3893  142.4440  159.0276 C.ar    1  UNL1        0.0146
     36 C         143.7634  141.2185  156.0930 C.3     1  UNL1        0.0189
     37 C         145.0453  140.7064  156.6799 C.3     1  UNL1        0.0044
     38 C         142.4815  141.7306  155.5060 C.3     1  UNL1        0.0044
     39 C         144.2714  140.9113  154.7154 C.3     1  UNL1        0.0044
     40 C         143.6736  143.5841  163.2208 C.2     1  UNL1        0.0692
     41 O         144.4906  142.8923  164.2716 O.co2   1  UNL1       -0.5475
     42 O         144.2048  144.8145  162.5472 O.co2   1  UNL1       -0.5475
@<TRIPOS>UNITY_ATOM_ATTR
41 1
charge -1
@<TRIPOS>BOND
     1    22    23    1
     2    23    16    1
     3    16    17   ar
     4    17    18   ar
     5    18    19   ar
     6    19    20   ar
     7    20    10    1
     8    10    11   ar
     9    11    12   ar
    10    12     9    1
    11     9     8    1
    12     8     7    1
    13     7     1    1
    14     1     2   ar
    15     2     3   ar
    16     3     4   ar
    17     4     5   ar
    18     5    24    1
    19    25    24    1
    20    25    26    1
    21    26    27    2
    22    26    28   am
    23    28    30    1
    24    30    31   ar
    25    31    32   ar
    26    32    33   ar
    27    33    36    1
    28    36    37    1
    29    36    38    1
    30    36    39    1
    31    33    34   ar
    32    34    35   ar
    33    28    29    1
    34    29    40    1
    35    40    41   ar
    36    40    42   ar
    37     5     6   ar
    38    12    13   ar
    39    13    14    1
    40    13    15   ar
    41    20    21   ar
    42    21    16   ar
    43    15    10   ar
    44     6     1   ar
    45    29    25    1
    46    35    30   ar
