@<TRIPOS>MOLECULE
*****
 31 33 0 0 0
SMALL
GASTEIGER

@<TRIPOS>ATOM
      1 O         141.6036  137.7063  162.1821 O.3     1  UNL1       -0.3470
      2 C         142.6254  138.1524  163.1855 C.3     1  UNL1        0.1875
      3 C         141.6646  141.6621  164.7696 C.ar    1  UNL1        0.0803
      4 C         141.5709  141.3012  166.2225 C.ar    1  UNL1        0.0230
      5 C         141.8287  139.8908  166.6631 C.ar    1  UNL1        0.0742
      6 C         142.1802  138.8412  165.6508 C.ar    1  UNL1        0.0211
      7 C         142.2739  139.2020  164.1979 C.ar    1  UNL1        0.0887
      8 N         142.0161  140.6125  163.7573 N.ar    1  UNL1       -0.2472
      9 C         142.2912  145.4446  163.7448 C.3     1  UNL1        0.0264
     10 C         142.5490  144.0341  164.1854 C.2     1  UNL1       -0.0421
     11 C         143.9492  143.5852  164.4825 C.3     1  UNL1        0.0264
     12 C         141.4068  143.0726  164.3290 C.2     1  UNL1        0.0106
     13 C         141.7350  139.5299  168.1161 C.3     1  UNL1        0.4187
     14 F         141.6413  139.1691  169.5690 F       1  UNL1       -0.1659
     15 F         143.0209  138.7653  168.0090 F       1  UNL1       -0.1659
     16 F         140.4490  140.2946  168.2231 F       1  UNL1       -0.1659
     17 C         140.1538  137.6488  162.5627 C.3     1  UNL1        0.1467
     18 C         139.1976  138.6749  162.0311 C.3     1  UNL1        0.0489
     19 C         139.8761  138.2664  160.7572 C.3     1  UNL1        0.0238
     20 C         139.4780  138.9021  159.4582 C.3     1  UNL1        0.0725
     21 N         138.4014  139.9463  159.4331 N.3     1  UNL1       -0.2715
     22 C         138.0034  140.5821  158.1341 C.3     1  UNL1        0.0896
     23 C         137.7229  140.3548  160.7070 C.3     1  UNL1        0.0725
     24 C         138.1210  139.7191  162.0060 C.3     1  UNL1        0.0238
     25 C         138.8512  138.7270  163.4896 C.ar    1  UNL1       -0.0202
     26 C         138.8726  137.4720  164.3108 C.ar    1  UNL1       -0.0019
     27 C         138.5262  137.5241  165.7694 C.ar    1  UNL1        0.0293
     28 C         138.1584  138.8312  166.4067 C.ar    1  UNL1        0.1401
     29 F         137.8120  138.8834  167.8652 F       1  UNL1       -0.2042
     30 C         138.1370  140.0863  165.5854 C.ar    1  UNL1        0.0293
     31 C         138.4833  140.0341  164.1269 C.ar    1  UNL1       -0.0019
@<TRIPOS>BOND
     1     9    10    1
     2    10    11    1
     3    10    12    2
     4    12     3    1
     5     3     4   ar
     6     4     5   ar
     7     5    13    1
     8    13    14    1
     9    13    15    1
    10    13    16    1
    11     5     6   ar
    12     6     7   ar
    13     7     2    1
    14     2     1    1
    15     1    17    1
    16    17    18    1
    17    18    25    1
    18    25    26   ar
    19    26    27   ar
    20    27    28   ar
    21    28    29    1
    22    28    30   ar
    23    30    31   ar
    24    18    19    1
    25    19    20    1
    26    20    21    1
    27    21    22    1
    28    21    23    1
    29    23    24    1
    30     7     8   ar
    31     8     3   ar
    32    24    18    1
    33    31    25   ar
@<TRIPOS>MOLECULE
*****
 31 33 0 0 0
SMALL
GASTEIGER

@<TRIPOS>ATOM
      1 O         143.3173  138.6494  164.2060 O.3     1  UNL1       -0.3470
      2 C         142.0440  138.0184  163.7261 C.3     1  UNL1        0.1875
      3 C         138.9090  140.4520  163.7260 C.ar    1  UNL1        0.0803
      4 C         138.0780  139.8437  164.8165 C.ar    1  UNL1        0.0230
      5 C         138.5689  138.6270  165.5436 C.ar    1  UNL1        0.0742
      6 C         139.8909  138.0186  165.1801 C.ar    1  UNL1        0.0211
      7 C         140.7219  138.6268  164.0896 C.ar    1  UNL1        0.0887
      8 N         140.2310  139.8435  163.3625 N.ar    1  UNL1       -0.2472
      9 C         137.9757  144.2281  162.9387 C.3     1  UNL1        0.0264
     10 C         138.4667  143.0114  163.6657 C.2     1  UNL1       -0.0421
     11 C         139.0061  143.1374  165.0597 C.3     1  UNL1        0.0264
     12 C         138.4181  141.6687  162.9989 C.2     1  UNL1        0.0106
     13 C         137.7377  138.0187  166.6341 C.3     1  UNL1        0.4187
     14 F         136.9066  137.4105  167.7247 F       1  UNL1       -0.1659
     15 F         137.4637  139.3857  167.1876 F       1  UNL1       -0.1659
     16 F         138.0118  136.6518  166.0807 F       1  UNL1       -0.1659
     17 C         143.3221  139.4652  165.4648 C.3     1  UNL1        0.1467
     18 C         143.0905  140.9458  165.3999 C.3     1  UNL1        0.0489
     19 C         143.9250  140.7583  164.1677 C.3     1  UNL1        0.0238
     20 C         144.2660  141.9380  163.3063 C.3     1  UNL1        0.0725
     21 N         143.7725  143.3051  163.6771 N.3     1  UNL1       -0.2715
     22 C         144.1136  144.4848  162.8157 C.3     1  UNL1        0.0896
     23 C         142.9381  143.4926  164.9093 C.3     1  UNL1        0.0725
     24 C         142.5970  142.3129  165.7708 C.3     1  UNL1        0.0238
     25 C         142.3364  140.6190  166.6548 C.ar    1  UNL1       -0.0202
     26 C         140.9636  141.1827  166.8731 C.ar    1  UNL1       -0.0019
     27 C         140.2095  140.8559  168.1279 C.ar    1  UNL1        0.0293
     28 C         140.8281  139.9655  169.1644 C.ar    1  UNL1        0.1401
     29 F         140.0741  139.6386  170.4192 F       1  UNL1       -0.2042
     30 C         142.2010  139.4017  168.9460 C.ar    1  UNL1        0.0293
     31 C         142.9551  139.7286  167.6912 C.ar    1  UNL1       -0.0019
@<TRIPOS>BOND
     1     9    10    1
     2    10    11    1
     3    10    12    2
     4    12     3    1
     5     3     4   ar
     6     4     5   ar
     7     5    13    1
     8    13    14    1
     9    13    15    1
    10    13    16    1
    11     5     6   ar
    12     6     7   ar
    13     7     2    1
    14     2     1    1
    15     1    17    1
    16    17    18    1
    17    18    25    1
    18    25    26   ar
    19    26    27   ar
    20    27    28   ar
    21    28    29    1
    22    28    30   ar
    23    30    31   ar
    24    18    19    1
    25    19    20    1
    26    20    21    1
    27    21    22    1
    28    21    23    1
    29    23    24    1
    30     7     8   ar
    31     8     3   ar
    32    24    18    1
    33    31    25   ar
@<TRIPOS>MOLECULE
*****
 31 33 0 0 0
SMALL
GASTEIGER

@<TRIPOS>ATOM
      1 O         138.9504  143.6781  164.9176 O.3     1  UNL1       -0.3470
      2 C         138.0662  142.5734  164.4197 C.3     1  UNL1        0.1875
      3 C         140.1157  139.3177  163.4447 C.ar    1  UNL1        0.0803
      4 C         139.5546  138.3266  164.4208 C.ar    1  UNL1        0.0230
      5 C         138.4974  138.7511  165.3966 C.ar    1  UNL1        0.0742
      6 C         138.0013  140.1666  165.3962 C.ar    1  UNL1        0.0211
      7 C         138.5623  141.1577  164.4201 C.ar    1  UNL1        0.0887
      8 N         139.6195  140.7333  163.4443 N.ar    1  UNL1       -0.2472
      9 C         143.6063  138.1250  161.9807 C.3     1  UNL1        0.0264
     10 C         142.5491  138.5495  162.9565 C.2     1  UNL1       -0.0421
     11 C         142.8681  138.6301  164.4200 C.3     1  UNL1        0.0264
     12 C         141.1729  138.8933  162.4689 C.2     1  UNL1        0.0106
     13 C         137.9363  137.7599  166.3727 C.3     1  UNL1        0.4187
     14 F         137.3752  136.7688  167.3488 F       1  UNL1       -0.1659
     15 F         137.3163  138.8803  167.1539 F       1  UNL1       -0.1659
     16 F         138.5563  136.6395  165.5915 F       1  UNL1       -0.1659
     17 C         139.9191  143.4185  166.0331 C.3     1  UNL1        0.1467
     18 C         141.2964  142.9095  165.7270 C.3     1  UNL1        0.0489
     19 C         141.1139  143.8680  164.5879 C.3     1  UNL1        0.0238
     20 C         142.2060  144.0461  163.5752 C.3     1  UNL1        0.0725
     21 N         143.4807  143.2656  163.7017 N.3     1  UNL1       -0.2715
     22 C         144.5728  143.4437  162.6890 C.3     1  UNL1        0.0896
     23 C         143.6632  142.3070  164.8409 C.3     1  UNL1        0.0725
     24 C         142.5711  142.1289  165.8536 C.3     1  UNL1        0.0238
     25 C         141.0006  142.1276  166.9726 C.ar    1  UNL1       -0.0202
     26 C         141.2654  140.6517  167.0122 C.ar    1  UNL1       -0.0019
     27 C         140.9696  139.8698  168.2577 C.ar    1  UNL1        0.0293
     28 C         140.4090  140.5639  169.4635 C.ar    1  UNL1        0.1401
     29 F         140.1131  139.7821  170.7090 F       1  UNL1       -0.2042
     30 C         140.1441  142.0399  169.4238 C.ar    1  UNL1        0.0293
     31 C         140.4400  142.8216  168.1783 C.ar    1  UNL1       -0.0019
@<TRIPOS>BOND
     1     9    10    1
     2    10    11    1
     3    10    12    2
     4    12     3    1
     5     3     4   ar
     6     4     5   ar
     7     5    13    1
     8    13    14    1
     9    13    15    1
    10    13    16    1
    11     5     6   ar
    12     6     7   ar
    13     7     2    1
    14     2     1    1
    15     1    17    1
    16    17    18    1
    17    18    25    1
    18    25    26   ar
    19    26    27   ar
    20    27    28   ar
    21    28    29    1
    22    28    30   ar
    23    30    31   ar
    24    18    19    1
    25    19    20    1
    26    20    21    1
    27    21    22    1
    28    21    23    1
    29    23    24    1
    30     7     8   ar
    31     8     3   ar
    32    24    18    1
    33    31    25   ar
@<TRIPOS>MOLECULE
*****
 31 33 0 0 0
SMALL
GASTEIGER

@<TRIPOS>ATOM
      1 O         143.3741  141.1405  165.3026 O.3     1  UNL1       -0.3470
      2 C         142.9208  140.0401  164.3897 C.3     1  UNL1        0.1875
      3 C         139.3715  140.1479  162.6173 C.ar    1  UNL1        0.0803
      4 C         138.5305  139.4184  163.6224 C.ar    1  UNL1        0.0230
      5 C         139.1528  138.8960  164.8833 C.ar    1  UNL1        0.0742
      6 C         140.6162  139.1033  165.1391 C.ar    1  UNL1        0.0211
      7 C         141.4573  139.8328  164.1340 C.ar    1  UNL1        0.0887
      8 N         140.8349  140.3552  162.8731 N.ar    1  UNL1       -0.2472
      9 C         138.1578  140.3647  158.8451 C.3     1  UNL1        0.0264
     10 C         138.7801  139.8424  160.1060 C.2     1  UNL1       -0.0421
     11 C         139.4335  138.4922  160.1164 C.3     1  UNL1        0.0264
     12 C         138.7492  140.6702  161.3564 C.2     1  UNL1        0.0106
     13 C         138.3117  138.1665  165.8885 C.3     1  UNL1        0.4187
     14 F         137.4706  137.4369  166.8936 F       1  UNL1       -0.1659
     15 F         138.8979  136.8631  165.4329 F       1  UNL1       -0.1659
     16 F         137.7255  139.4698  166.3441 F       1  UNL1       -0.1659
     17 C         142.5274  142.3664  165.4778 C.3     1  UNL1        0.1467
     18 C         141.6661  142.5150  166.6968 C.3     1  UNL1        0.0489
     19 C         142.9346  142.0277  167.3320 C.3     1  UNL1        0.0238
     20 C         143.0051  141.8404  168.8185 C.3     1  UNL1        0.0725
     21 N         141.8071  142.1403  169.6699 N.3     1  UNL1       -0.2715
     22 C         141.8776  141.9530  171.1565 C.3     1  UNL1        0.0896
     23 C         140.5386  142.6276  169.0348 C.3     1  UNL1        0.0725
     24 C         140.4681  142.8150  167.5482 C.3     1  UNL1        0.0238
     25 C         140.6967  142.9507  165.6382 C.ar    1  UNL1       -0.0202
     26 C         141.1569  143.8369  164.5189 C.ar    1  UNL1       -0.0019
     27 C         140.1875  144.2726  163.4603 C.ar    1  UNL1        0.0293
     28 C         138.7581  143.8221  163.5211 C.ar    1  UNL1        0.1401
     29 F         137.7887  144.2577  162.4626 F       1  UNL1       -0.2042
     30 C         138.2979  142.9359  164.6406 C.ar    1  UNL1        0.0293
     31 C         139.2673  142.5002  165.6990 C.ar    1  UNL1       -0.0019
@<TRIPOS>BOND
     1     9    10    1
     2    10    11    1
     3    10    12    2
     4    12     3    1
     5     3     4   ar
     6     4     5   ar
     7     5    13    1
     8    13    14    1
     9    13    15    1
    10    13    16    1
    11     5     6   ar
    12     6     7   ar
    13     7     2    1
    14     2     1    1
    15     1    17    1
    16    17    18    1
    17    18    25    1
    18    25    26   ar
    19    26    27   ar
    20    27    28   ar
    21    28    29    1
    22    28    30   ar
    23    30    31   ar
    24    18    19    1
    25    19    20    1
    26    20    21    1
    27    21    22    1
    28    21    23    1
    29    23    24    1
    30     7     8   ar
    31     8     3   ar
    32    24    18    1
    33    31    25   ar
@<TRIPOS>MOLECULE
*****
 31 33 0 0 0
SMALL
GASTEIGER

@<TRIPOS>ATOM
      1 O         138.0983  139.1714  161.9804 O.3     1  UNL1       -0.3470
      2 C         137.6534  140.5981  162.1087 C.3     1  UNL1        0.1875
      3 C         140.9512  142.6981  162.7904 C.ar    1  UNL1        0.0803
      4 C         140.4544  143.6845  163.8053 C.ar    1  UNL1        0.0230
      5 C         139.0239  143.6422  164.2546 C.ar    1  UNL1        0.0742
      6 C         138.0903  142.6134  163.6891 C.ar    1  UNL1        0.0211
      7 C         138.5871  141.6270  162.6743 C.ar    1  UNL1        0.0887
      8 N         140.0176  141.6693  162.2249 N.ar    1  UNL1       -0.2472
      9 C         144.9053  142.3602  162.8280 C.3     1  UNL1        0.0264
     10 C         143.4748  142.3179  163.2773 C.2     1  UNL1       -0.0421
     11 C         143.1374  141.8531  164.6631 C.3     1  UNL1        0.0264
     12 C         142.3817  142.7404  162.3410 C.2     1  UNL1        0.0106
     13 C         138.5271  144.6287  165.2696 C.3     1  UNL1        0.4187
     14 F         138.0303  145.6152  166.2845 F       1  UNL1       -0.1659
     15 F         137.1282  144.1233  165.0760 F       1  UNL1       -0.1659
     16 F         139.9260  145.1342  165.4631 F       1  UNL1       -0.1659
     17 C         138.6406  138.4445  163.1753 C.3     1  UNL1        0.1467
     18 C         140.1156  138.4446  163.4475 C.3     1  UNL1        0.0489
     19 C         140.1214  138.1298  161.9809 C.3     1  UNL1        0.0238
     20 C         141.4223  137.9243  161.2630 C.3     1  UNL1        0.0725
     21 N         142.7175  138.0338  162.0117 N.3     1  UNL1       -0.2715
     22 C         144.0184  137.8283  161.2938 C.3     1  UNL1        0.0896
     23 C         142.7118  138.3486  163.4782 C.3     1  UNL1        0.0725
     24 C         141.4109  138.5540  164.1962 C.3     1  UNL1        0.0238
     25 C         139.5976  138.7594  164.8196 C.ar    1  UNL1       -0.0202
     26 C         138.4933  137.9349  165.4117 C.ar    1  UNL1       -0.0019
     27 C         137.9753  138.2497  166.7838 C.ar    1  UNL1        0.0293
     28 C         138.5615  139.3890  167.5637 C.ar    1  UNL1        0.1401
     29 F         138.0435  139.7039  168.9357 F       1  UNL1       -0.2042
     30 C         139.6658  140.2136  166.9714 C.ar    1  UNL1        0.0293
     31 C         140.1838  139.8988  165.5994 C.ar    1  UNL1       -0.0019
@<TRIPOS>BOND
     1     9    10    1
     2    10    11    1
     3    10    12    2
     4    12     3    1
     5     3     4   ar
     6     4     5   ar
     7     5    13    1
     8    13    14    1
     9    13    15    1
    10    13    16    1
    11     5     6   ar
    12     6     7   ar
    13     7     2    1
    14     2     1    1
    15     1    17    1
    16    17    18    1
    17    18    25    1
    18    25    26   ar
    19    26    27   ar
    20    27    28   ar
    21    28    29    1
    22    28    30   ar
    23    30    31   ar
    24    18    19    1
    25    19    20    1
    26    20    21    1
    27    21    22    1
    28    21    23    1
    29    23    24    1
    30     7     8   ar
    31     8     3   ar
    32    24    18    1
    33    31    25   ar
@<TRIPOS>MOLECULE
*****
 31 33 0 0 0
SMALL
GASTEIGER

@<TRIPOS>ATOM
      1 O         142.9017  138.7723  163.5267 O.3     1  UNL1       -0.3470
      2 C         143.2754  139.5020  164.7828 C.3     1  UNL1        0.1875
      3 C         141.3171  142.9438  165.0463 C.ar    1  UNL1        0.0803
      4 C         140.6165  142.7713  166.3614 C.ar    1  UNL1        0.0230
      5 C         140.8023  141.5091  167.1503 C.ar    1  UNL1        0.0742
      6 C         141.6885  140.4193  166.6241 C.ar    1  UNL1        0.0211
      7 C         142.3891  140.5918  165.3090 C.ar    1  UNL1        0.0887
      8 N         142.2034  141.8540  164.5201 N.ar    1  UNL1       -0.2472
      9 C         139.7779  145.6056  162.5372 C.3     1  UNL1        0.0264
     10 C         139.9637  144.3434  163.3261 C.2     1  UNL1       -0.0421
     11 C         138.9815  143.2185  163.1836 C.3     1  UNL1        0.0264
     12 C         141.1314  144.2060  164.2574 C.2     1  UNL1        0.0106
     13 C         140.1016  141.3367  168.4654 C.3     1  UNL1        0.4187
     14 F         139.4010  141.1643  169.7804 F       1  UNL1       -0.1659
     15 F         140.0625  142.8260  168.6397 F       1  UNL1       -0.1659
     16 F         140.1408  139.8474  168.2910 F       1  UNL1       -0.1659
     17 C         141.6100  138.0130  163.4564 C.3     1  UNL1        0.1467
     18 C         140.5872  138.3674  162.4180 C.3     1  UNL1        0.0489
     19 C         141.7776  138.1233  161.5386 C.3     1  UNL1        0.0238
     20 C         141.6552  138.2756  160.0514 C.3     1  UNL1        0.0725
     21 N         140.3423  138.6720  159.4436 N.3     1  UNL1       -0.2715
     22 C         140.2199  138.8243  157.9564 C.3     1  UNL1        0.0896
     23 C         139.1520  138.9161  160.3230 C.3     1  UNL1        0.0725
     24 C         139.2744  138.7638  161.8102 C.3     1  UNL1        0.0238
     25 C         139.7520  138.4884  163.6581 C.ar    1  UNL1       -0.0202
     26 C         139.0653  139.7835  163.9764 C.ar    1  UNL1       -0.0019
     27 C         138.2301  139.9045  165.2165 C.ar    1  UNL1        0.0293
     28 C         138.0817  138.7306  166.1383 C.ar    1  UNL1        0.1401
     29 F         137.2465  138.8515  167.3784 F       1  UNL1       -0.2042
     30 C         138.7684  137.4355  165.8200 C.ar    1  UNL1        0.0293
     31 C         139.6036  137.3145  164.5799 C.ar    1  UNL1       -0.0019
@<TRIPOS>BOND
     1     9    10    1
     2    10    11    1
     3    10    12    2
     4    12     3    1
     5     3     4   ar
     6     4     5   ar
     7     5    13    1
     8    13    14    1
     9    13    15    1
    10    13    16    1
    11     5     6   ar
    12     6     7   ar
    13     7     2    1
    14     2     1    1
    15     1    17    1
    16    17    18    1
    17    18    25    1
    18    25    26   ar
    19    26    27   ar
    20    27    28   ar
    21    28    29    1
    22    28    30   ar
    23    30    31   ar
    24    18    19    1
    25    19    20    1
    26    20    21    1
    27    21    22    1
    28    21    23    1
    29    23    24    1
    30     7     8   ar
    31     8     3   ar
    32    24    18    1
    33    31    25   ar
@<TRIPOS>MOLECULE
*****
 31 33 0 0 0
SMALL
GASTEIGER

@<TRIPOS>ATOM
      1 O         143.3186  141.2760  165.4247 O.3     1  UNL1       -0.3470
      2 C         142.9178  141.8506  164.0983 C.3     1  UNL1        0.1875
      3 C         139.3540  141.6116  162.3686 C.ar    1  UNL1        0.0803
      4 C         138.5741  142.5957  163.1890 C.ar    1  UNL1        0.0230
      5 C         139.2421  143.3314  164.3126 C.ar    1  UNL1        0.0742
      6 C         140.6900  143.0831  164.6158 C.ar    1  UNL1        0.0211
      7 C         141.4699  142.0990  163.7953 C.ar    1  UNL1        0.0887
      8 N         140.8019  141.3633  162.6717 N.ar    1  UNL1       -0.2472
      9 C         138.0321  140.7143  158.7357 C.3     1  UNL1        0.0264
     10 C         138.7001  141.4501  159.8593 C.2     1  UNL1       -0.0421
     11 C         139.3822  142.7601  159.5972 C.3     1  UNL1        0.0264
     12 C         138.6860  140.8758  161.2450 C.2     1  UNL1        0.0106
     13 C         138.4621  144.3156  165.1332 C.3     1  UNL1        0.4187
     14 F         137.6822  145.2997  165.9537 F       1  UNL1       -0.1659
     15 F         139.4524  144.1690  166.2502 F       1  UNL1       -0.1659
     16 F         137.4718  144.4621  164.0161 F       1  UNL1       -0.1659
     17 C         142.6412  140.0421  165.9430 C.3     1  UNL1        0.1467
     18 C         141.6213  140.1500  167.0375 C.3     1  UNL1        0.0489
     19 C         142.7750  140.8560  167.6860 C.3     1  UNL1        0.0238
     20 C         142.6311  141.4117  169.0717 C.3     1  UNL1        0.0725
     21 N         141.3335  141.2615  169.8091 N.3     1  UNL1       -0.2715
     22 C         141.1896  141.8172  171.1949 C.3     1  UNL1        0.0896
     23 C         140.1798  140.5555  169.1607 C.3     1  UNL1        0.0725
     24 C         140.3237  139.9997  167.7749 C.3     1  UNL1        0.0238
     25 C         140.8218  139.4065  166.0089 C.ar    1  UNL1       -0.0202
     26 C         139.3891  139.7758  165.7618 C.ar    1  UNL1       -0.0019
     27 C         138.5896  139.0323  164.7332 C.ar    1  UNL1        0.0293
     28 C         139.2228  137.9195  163.9517 C.ar    1  UNL1        0.1401
     29 F         138.4234  137.1759  162.9231 F       1  UNL1       -0.2042
     30 C         140.6555  137.5501  164.1989 C.ar    1  UNL1        0.0293
     31 C         141.4549  138.2937  165.2275 C.ar    1  UNL1       -0.0019
@<TRIPOS>BOND
     1     9    10    1
     2    10    11    1
     3    10    12    2
     4    12     3    1
     5     3     4   ar
     6     4     5   ar
     7     5    13    1
     8    13    14    1
     9    13    15    1
    10    13    16    1
    11     5     6   ar
    12     6     7   ar
    13     7     2    1
    14     2     1    1
    15     1    17    1
    16    17    18    1
    17    18    25    1
    18    25    26   ar
    19    26    27   ar
    20    27    28   ar
    21    28    29    1
    22    28    30   ar
    23    30    31   ar
    24    18    19    1
    25    19    20    1
    26    20    21    1
    27    21    22    1
    28    21    23    1
    29    23    24    1
    30     7     8   ar
    31     8     3   ar
    32    24    18    1
    33    31    25   ar
@<TRIPOS>MOLECULE
*****
 31 33 0 0 0
SMALL
GASTEIGER

@<TRIPOS>ATOM
      1 O         140.7255  143.0975  165.8001 O.3     1  UNL1       -0.3470
      2 C         139.7940  142.7129  164.6891 C.3     1  UNL1        0.1875
      3 C         139.7855  139.2925  162.6764 C.ar    1  UNL1        0.0803
      4 C         139.1621  138.3724  163.6837 C.ar    1  UNL1        0.0230
      5 C         138.7493  138.8991  165.0262 C.ar    1  UNL1        0.0742
      6 C         138.9599  140.3459  165.3613 C.ar    1  UNL1        0.0211
      7 C         139.5833  141.2660  164.3540 C.ar    1  UNL1        0.0887
      8 N         139.9961  140.7393  163.0115 N.ar    1  UNL1       -0.2472
      9 C         139.7300  138.4569  158.7972 C.3     1  UNL1        0.0264
     10 C         139.3172  138.9836  160.1396 C.2     1  UNL1       -0.0421
     11 C         138.0234  139.7280  160.2877 C.3     1  UNL1        0.0264
     12 C         140.1982  138.7658  161.3339 C.2     1  UNL1        0.0106
     13 C         138.1259  137.9789  166.0335 C.3     1  UNL1        0.4187
     14 F         137.5024  137.0588  167.0408 F       1  UNL1       -0.1659
     15 F         137.3970  139.1397  166.6428 F       1  UNL1       -0.1659
     16 F         138.8547  136.8181  165.4243 F       1  UNL1       -0.1659
     17 C         142.0575  142.4199  165.9305 C.3     1  UNL1        0.1467
     18 C         142.2831  141.4123  167.0185 C.3     1  UNL1        0.0489
     19 C         141.7033  142.5382  167.8223 C.3     1  UNL1        0.0238
     20 C         141.5233  142.3870  169.3038 C.3     1  UNL1        0.0725
     21 N         141.9230  141.1098  169.9814 N.3     1  UNL1       -0.2715
     22 C         141.7430  140.9586  171.4628 C.3     1  UNL1        0.0896
     23 C         142.5027  139.9839  169.1776 C.3     1  UNL1        0.0725
     24 C         142.6828  140.1351  167.6961 C.3     1  UNL1        0.0238
     25 C         142.7845  140.6363  165.8367 C.ar    1  UNL1       -0.0202
     26 C         142.3829  139.2024  165.6560 C.ar    1  UNL1       -0.0019
     27 C         142.8843  138.4264  164.4743 C.ar    1  UNL1        0.0293
     28 C         143.7872  139.0843  163.4733 C.ar    1  UNL1        0.1401
     29 F         144.2886  138.3083  162.2916 F       1  UNL1       -0.2042
     30 C         144.1887  140.5183  163.6541 C.ar    1  UNL1        0.0293
     31 C         143.6873  141.2942  164.8358 C.ar    1  UNL1       -0.0019
@<TRIPOS>BOND
     1     9    10    1
     2    10    11    1
     3    10    12    2
     4    12     3    1
     5     3     4   ar
     6     4     5   ar
     7     5    13    1
     8    13    14    1
     9    13    15    1
    10    13    16    1
    11     5     6   ar
    12     6     7   ar
    13     7     2    1
    14     2     1    1
    15     1    17    1
    16    17    18    1
    17    18    25    1
    18    25    26   ar
    19    26    27   ar
    20    27    28   ar
    21    28    29    1
    22    28    30   ar
    23    30    31   ar
    24    18    19    1
    25    19    20    1
    26    20    21    1
    27    21    22    1
    28    21    23    1
    29    23    24    1
    30     7     8   ar
    31     8     3   ar
    32    24    18    1
    33    31    25   ar
@<TRIPOS>MOLECULE
*****
 31 33 0 0 0
SMALL
GASTEIGER

@<TRIPOS>ATOM
      1 O         139.8495  141.1697  162.3350 O.3     1  UNL1       -0.3470
      2 C         139.8037  141.9830  163.5945 C.3     1  UNL1        0.1875
      3 C         141.0001  141.0074  167.2506 C.ar    1  UNL1        0.0803
      4 C         140.0040  139.9417  167.5998 C.ar    1  UNL1        0.0230
      5 C         138.9411  139.5564  166.6140 C.ar    1  UNL1        0.0742
      6 C         138.8743  140.2368  165.2789 C.ar    1  UNL1        0.0211
      7 C         139.8704  141.3025  164.9296 C.ar    1  UNL1        0.0887
      8 N         140.9333  141.6878  165.9155 N.ar    1  UNL1       -0.2472
      9 C         142.8726  142.8827  170.2047 C.3     1  UNL1        0.0264
     10 C         141.8097  142.4975  169.2188 C.2     1  UNL1       -0.0421
     11 C         140.4935  143.2171  169.2155 C.3     1  UNL1        0.0264
     12 C         142.0629  141.3927  168.2364 C.2     1  UNL1        0.0106
     13 C         137.9450  138.4906  166.9633 C.3     1  UNL1        0.4187
     14 F         136.9489  137.4249  167.3126 F       1  UNL1       -0.1659
     15 F         138.1623  137.8489  165.6251 F       1  UNL1       -0.1659
     16 F         137.7276  139.1323  168.3015 F       1  UNL1       -0.1659
     17 C         140.4556  139.7976  162.3499 C.3     1  UNL1        0.1467
     18 C         141.7247  139.5300  161.5965 C.3     1  UNL1        0.0489
     19 C         140.8472  139.9942  160.4721 C.3     1  UNL1        0.0238
     20 C         141.3905  140.0618  159.0756 C.3     1  UNL1        0.0725
     21 N         142.8113  139.6654  158.8036 N.3     1  UNL1       -0.2715
     22 C         143.3546  139.7330  157.4070 C.3     1  UNL1        0.0896
     23 C         143.6889  139.2012  159.9280 C.3     1  UNL1        0.0725
     24 C         143.1456  139.1336  161.3245 C.3     1  UNL1        0.0238
     25 C         142.1615  139.1588  162.9827 C.ar    1  UNL1       -0.0202
     26 C         143.2742  139.9149  163.6462 C.ar    1  UNL1       -0.0019
     27 C         143.7110  139.5437  165.0323 C.ar    1  UNL1        0.0293
     28 C         143.0351  138.4164  165.7550 C.ar    1  UNL1        0.1401
     29 F         143.4718  138.0452  167.1412 F       1  UNL1       -0.2042
     30 C         141.9223  137.6603  165.0915 C.ar    1  UNL1        0.0293
     31 C         141.4856  138.0315  163.7054 C.ar    1  UNL1       -0.0019
@<TRIPOS>BOND
     1     9    10    1
     2    10    11    1
     3    10    12    2
     4    12     3    1
     5     3     4   ar
     6     4     5   ar
     7     5    13    1
     8    13    14    1
     9    13    15    1
    10    13    16    1
    11     5     6   ar
    12     6     7   ar
    13     7     2    1
    14     2     1    1
    15     1    17    1
    16    17    18    1
    17    18    25    1
    18    25    26   ar
    19    26    27   ar
    20    27    28   ar
    21    28    29    1
    22    28    30   ar
    23    30    31   ar
    24    18    19    1
    25    19    20    1
    26    20    21    1
    27    21    22    1
    28    21    23    1
    29    23    24    1
    30     7     8   ar
    31     8     3   ar
    32    24    18    1
    33    31    25   ar
