@<TRIPOS>MOLECULE
*****
 28 32 0 0 0
SMALL
GASTEIGER

@<TRIPOS>ATOM
      1 C         139.9306  145.4164  157.2421 C.ar    1  UNL1        0.0834
      2 C         140.3859  145.8553  158.6022 C.ar    1  UNL1        0.0273
      3 C         140.3841  144.8824  159.7438 C.ar    1  UNL1        0.0528
      4 S         140.7744  145.0254  161.1851 S.2     1  UNL1       -0.0514
      5 C         140.5584  143.7020  161.8574 C.ar    1  UNL1        0.1631
      6 N         140.0346  142.7411  160.8316 N.ar    1  UNL1       -0.2225
      7 C         139.9268  143.4706  159.5253 C.ar    1  UNL1        0.1084
      8 C         139.4715  143.0317  158.1652 C.ar    1  UNL1        0.1184
      9 N         139.4733  144.0046  157.0236 N.ar    1  UNL1       -0.2422
     10 C         139.9380  149.3080  152.6752 C.3     1  UNL1        0.0521
     11 C         139.9361  148.3351  153.8169 C.ar    1  UNL1        0.0594
     12 C         139.1060  148.6105  155.0355 C.ar    1  UNL1        0.0148
     13 C         139.1042  147.6376  156.1773 C.ar    1  UNL1        0.0043
     14 C         139.9324  146.3894  156.1003 C.ar    1  UNL1        0.0368
     15 C         140.7625  146.1140  154.8817 C.ar    1  UNL1        0.0999
     16 N         140.7644  147.0868  153.7400 N.ar    1  UNL1       -0.2481
     17 N         140.8203  143.3937  163.3018 N.pl3   1  UNL1       -0.2881
     18 C         139.7112  143.5052  164.3055 C.3     1  UNL1        0.0940
     19 C         139.9731  143.1969  165.7499 C.3     1  UNL1        0.0375
     20 C         141.3440  142.7771  166.1906 C.3     1  UNL1        0.0609
     21 C         142.4531  142.6656  165.1869 C.3     1  UNL1        0.0375
     22 C         142.1912  142.9739  163.7425 C.3     1  UNL1        0.0940
     23 N         141.6058  142.4688  167.6351 N.3     1  UNL1       -0.2738
     24 C         140.4780  142.4932  168.6236 C.3     1  UNL1        0.0720
     25 C         140.7398  142.1849  170.0680 C.3     1  UNL1        0.0174
     26 C         142.1295  141.8521  170.5239 C.3     1  UNL1        0.0029
     27 C         143.2574  141.8276  169.5354 C.3     1  UNL1        0.0174
     28 C         142.9956  142.1360  168.0910 C.3     1  UNL1        0.0720
@<TRIPOS>BOND
     1    10    11    1
     2    11    12   ar
     3    12    13   ar
     4    13    14   ar
     5    14     1    1
     6     1     2   ar
     7     2     3   ar
     8     3     4   ar
     9     4     5   ar
    10     5    17    1
    11    17    18    1
    12    18    19    1
    13    19    20    1
    14    20    23    1
    15    23    24    1
    16    24    25    1
    17    25    26    1
    18    26    27    1
    19    27    28    1
    20    20    21    1
    21    21    22    1
    22     5     6   ar
    23     6     7   ar
    24     7     8   ar
    25     8     9   ar
    26    14    15   ar
    27    15    16   ar
    28    16    11   ar
    29     9     1   ar
    30     7     3   ar
    31    22    17    1
    32    28    23    1
@<TRIPOS>MOLECULE
*****
 28 32 0 0 0
SMALL
GASTEIGER

@<TRIPOS>ATOM
      1 C         143.6335  141.4076  159.5577 C.ar    1  UNL1        0.0834
      2 C         143.0748  140.0360  159.7953 C.ar    1  UNL1        0.0273
      3 C         143.0918  139.0181  158.6937 C.ar    1  UNL1        0.0528
      4 S         142.6165  137.5967  158.6330 S.2     1  UNL1       -0.0514
      5 C         142.8984  137.0719  157.2564 C.ar    1  UNL1        0.1631
      6 N         143.5480  138.1690  156.4662 N.ar    1  UNL1       -0.2225
      7 C         143.6675  139.3718  157.3545 C.ar    1  UNL1        0.1084
      8 C         144.2262  140.7434  157.1169 C.ar    1  UNL1        0.1184
      9 N         144.2092  141.7613  158.2185 N.ar    1  UNL1       -0.2422
     10 C         143.5655  145.4794  163.9640 C.3     1  UNL1        0.0521
     11 C         143.5825  144.4615  162.8625 C.ar    1  UNL1        0.0594
     12 C         144.5851  143.3460  162.8875 C.ar    1  UNL1        0.0148
     13 C         144.6020  142.3280  161.7859 C.ar    1  UNL1        0.0043
     14 C         143.6165  142.4256  160.6593 C.ar    1  UNL1        0.0368
     15 C         142.6140  143.5411  160.6343 C.ar    1  UNL1        0.0999
     16 N         142.5970  144.5590  161.7358 N.ar    1  UNL1       -0.2481
     17 N         142.5856  135.6923  156.7575 N.pl3   1  UNL1       -0.2881
     18 C         141.5469  135.4972  155.6932 C.3     1  UNL1        0.0940
     19 C         141.2341  134.1176  155.1944 C.3     1  UNL1        0.0375
     20 C         141.9601  132.9331  155.7598 C.3     1  UNL1        0.0609
     21 C         142.9989  133.1282  156.8242 C.3     1  UNL1        0.0375
     22 C         143.3116  134.5078  157.3230 C.3     1  UNL1        0.0940
     23 N         141.6474  131.5535  155.2610 N.3     1  UNL1       -0.2738
     24 C         140.4584  131.3280  154.3748 C.3     1  UNL1        0.0720
     25 C         140.1456  129.9484  153.8759 C.3     1  UNL1        0.0174
     26 C         141.0219  128.7942  154.2633 C.3     1  UNL1        0.0029
     27 C         142.2108  129.0197  155.1495 C.3     1  UNL1        0.0174
     28 C         142.5236  130.3993  155.6484 C.3     1  UNL1        0.0720
@<TRIPOS>BOND
     1    10    11    1
     2    11    12   ar
     3    12    13   ar
     4    13    14   ar
     5    14     1    1
     6     1     2   ar
     7     2     3   ar
     8     3     4   ar
     9     4     5   ar
    10     5    17    1
    11    17    18    1
    12    18    19    1
    13    19    20    1
    14    20    23    1
    15    23    24    1
    16    24    25    1
    17    25    26    1
    18    26    27    1
    19    27    28    1
    20    20    21    1
    21    21    22    1
    22     5     6   ar
    23     6     7   ar
    24     7     8   ar
    25     8     9   ar
    26    14    15   ar
    27    15    16   ar
    28    16    11   ar
    29     9     1   ar
    30     7     3   ar
    31    22    17    1
    32    28    23    1
@<TRIPOS>MOLECULE
*****
 28 32 0 0 0
SMALL
GASTEIGER

@<TRIPOS>ATOM
      1 C         142.9778  137.0236  157.5970 C.ar    1  UNL1        0.0834
      2 C         142.6602  136.8645  159.0543 C.ar    1  UNL1        0.0273
      3 C         142.6827  138.0588  159.9615 C.ar    1  UNL1        0.0528
      4 S         142.4156  138.2089  161.4299 S.2     1  UNL1       -0.0514
      5 C         142.5906  139.6552  161.7874 C.ar    1  UNL1        0.1631
      6 N         142.9659  140.3988  160.5399 N.ar    1  UNL1       -0.2225
      7 C         143.0228  139.4122  159.4115 C.ar    1  UNL1        0.1084
      8 C         143.3404  139.5713  157.9542 C.ar    1  UNL1        0.1184
      9 N         143.3179  138.3771  157.0469 N.ar    1  UNL1       -0.2422
     10 C         142.8878  132.2465  153.9678 C.3     1  UNL1        0.0521
     11 C         142.9103  133.4407  154.8750 C.ar    1  UNL1        0.0594
     12 C         142.5221  134.7904  154.3480 C.ar    1  UNL1        0.0148
     13 C         142.5446  135.9847  155.2554 C.ar    1  UNL1        0.0043
     14 C         142.9553  135.8293  156.6896 C.ar    1  UNL1        0.0368
     15 C         143.3435  134.4797  157.2166 C.ar    1  UNL1        0.0999
     16 N         143.3211  133.2854  156.3094 N.ar    1  UNL1       -0.2481
     17 N         142.4202  140.2528  163.1526 N.pl3   1  UNL1       -0.2881
     18 C         143.1451  139.6624  164.3256 C.3     1  UNL1        0.0940
     19 C         142.9747  140.2600  165.6908 C.3     1  UNL1        0.0375
     20 C         142.0795  141.4481  165.8830 C.3     1  UNL1        0.0609
     21 C         141.3547  142.0386  164.7100 C.3     1  UNL1        0.0375
     22 C         141.5250  141.4409  163.3448 C.3     1  UNL1        0.0940
     23 N         141.9091  142.0457  167.2482 N.3     1  UNL1       -0.2738
     24 C         143.0447  142.0143  168.2277 C.3     1  UNL1        0.0720
     25 C         142.8743  142.6119  169.5929 C.3     1  UNL1        0.0174
     26 C         141.5684  143.2410  169.9786 C.3     1  UNL1        0.0029
     27 C         140.4329  143.2725  168.9991 C.3     1  UNL1        0.0174
     28 C         140.6032  142.6749  167.6339 C.3     1  UNL1        0.0720
@<TRIPOS>BOND
     1    10    11    1
     2    11    12   ar
     3    12    13   ar
     4    13    14   ar
     5    14     1    1
     6     1     2   ar
     7     2     3   ar
     8     3     4   ar
     9     4     5   ar
    10     5    17    1
    11    17    18    1
    12    18    19    1
    13    19    20    1
    14    20    23    1
    15    23    24    1
    16    24    25    1
    17    25    26    1
    18    26    27    1
    19    27    28    1
    20    20    21    1
    21    21    22    1
    22     5     6   ar
    23     6     7   ar
    24     7     8   ar
    25     8     9   ar
    26    14    15   ar
    27    15    16   ar
    28    16    11   ar
    29     9     1   ar
    30     7     3   ar
    31    22    17    1
    32    28    23    1
@<TRIPOS>MOLECULE
*****
 28 32 0 0 0
SMALL
GASTEIGER

@<TRIPOS>ATOM
      1 C         142.8734  137.9646  157.5592 C.ar    1  UNL1        0.0834
      2 C         142.3276  137.7902  158.9454 C.ar    1  UNL1        0.0273
      3 C         142.5680  138.8452  159.9842 C.ar    1  UNL1        0.0528
      4 S         142.1574  138.9488  161.4232 S.2     1  UNL1       -0.0514
      5 C         142.6898  140.2422  161.9652 C.ar    1  UNL1        0.1631
      6 N         143.4293  140.9379  160.8612 N.ar    1  UNL1       -0.2225
      7 C         143.3541  140.0745  159.6369 C.ar    1  UNL1        0.1084
      8 C         143.8999  140.2490  158.2506 C.ar    1  UNL1        0.1184
      9 N         143.6595  139.1940  157.2118 N.ar    1  UNL1       -0.2422
     10 C         141.9120  133.7448  153.4035 C.3     1  UNL1        0.0521
     11 C         142.1523  134.7997  154.4424 C.ar    1  UNL1        0.0594
     12 C         140.9936  135.5412  155.0404 C.ar    1  UNL1        0.0148
     13 C         141.2340  136.5961  156.0794 C.ar    1  UNL1        0.0043
     14 C         142.6330  136.9097  156.5202 C.ar    1  UNL1        0.0368
     15 C         143.7917  136.1682  155.9222 C.ar    1  UNL1        0.0999
     16 N         143.5514  135.1133  154.8833 N.ar    1  UNL1       -0.2481
     17 N         142.5134  140.7506  163.3654 N.pl3   1  UNL1       -0.2881
     18 C         141.9612  142.1253  163.6002 C.3     1  UNL1        0.0940
     19 C         141.7849  142.6337  165.0003 C.3     1  UNL1        0.0375
     20 C         142.1608  141.7674  166.1657 C.3     1  UNL1        0.0609
     21 C         142.7131  140.3927  165.9309 C.3     1  UNL1        0.0375
     22 C         142.8894  139.8843  164.5307 C.3     1  UNL1        0.0940
     23 N         141.9845  142.2758  167.5659 N.3     1  UNL1       -0.2738
     24 C         140.6500  142.7945  168.0130 C.3     1  UNL1        0.0720
     25 C         140.4737  143.3029  169.4131 C.3     1  UNL1        0.0174
     26 C         141.6319  143.2925  170.3662 C.3     1  UNL1        0.0029
     27 C         142.9665  142.7738  169.9191 C.3     1  UNL1        0.0174
     28 C         143.1428  142.2654  168.5189 C.3     1  UNL1        0.0720
@<TRIPOS>BOND
     1    10    11    1
     2    11    12   ar
     3    12    13   ar
     4    13    14   ar
     5    14     1    1
     6     1     2   ar
     7     2     3   ar
     8     3     4   ar
     9     4     5   ar
    10     5    17    1
    11    17    18    1
    12    18    19    1
    13    19    20    1
    14    20    23    1
    15    23    24    1
    16    24    25    1
    17    25    26    1
    18    26    27    1
    19    27    28    1
    20    20    21    1
    21    21    22    1
    22     5     6   ar
    23     6     7   ar
    24     7     8   ar
    25     8     9   ar
    26    14    15   ar
    27    15    16   ar
    28    16    11   ar
    29     9     1   ar
    30     7     3   ar
    31    22    17    1
    32    28    23    1
@<TRIPOS>MOLECULE
*****
 28 32 0 0 0
SMALL
GASTEIGER

@<TRIPOS>ATOM
      1 C         139.3433  141.5196  165.2766 C.ar    1  UNL1        0.0834
      2 C         140.1543  142.4486  164.4227 C.ar    1  UNL1        0.0273
      3 C         139.7803  142.6658  162.9864 C.ar    1  UNL1        0.0528
      4 S         140.3865  143.5151  161.9088 S.2     1  UNL1       -0.0514
      5 C         139.5762  143.3282  160.6604 C.ar    1  UNL1        0.1631
      6 N         138.4692  142.3634  160.9665 N.ar    1  UNL1       -0.2225
      7 C         138.5953  141.9540  162.4040 C.ar    1  UNL1        0.1084
      8 C         137.7843  141.0250  163.2579 C.ar    1  UNL1        0.1184
      9 N         138.1583  140.8078  164.6942 N.ar    1  UNL1       -0.2422
     10 C         140.8389  140.6507  171.0219 C.3     1  UNL1        0.0521
     11 C         140.4650  140.8680  169.5856 C.ar    1  UNL1        0.0594
     12 C         140.8510  142.1422  168.8946 C.ar    1  UNL1        0.0148
     13 C         140.4770  142.3594  167.4582 C.ar    1  UNL1        0.0043
     14 C         139.7172  141.3024  166.7129 C.ar    1  UNL1        0.0368
     15 C         139.3312  140.0283  167.4040 C.ar    1  UNL1        0.0999
     16 N         139.7051  139.8110  168.8402 N.ar    1  UNL1       -0.2481
     17 N         139.8285  143.9899  159.3381 N.pl3   1  UNL1       -0.2881
     18 C         140.6477  145.2447  159.2716 C.3     1  UNL1        0.0940
     19 C         140.9001  145.9064  157.9493 C.3     1  UNL1        0.0375
     20 C         140.3332  145.3134  156.6936 C.3     1  UNL1        0.0609
     21 C         139.5140  144.0587  156.7601 C.3     1  UNL1        0.0375
     22 C         139.2616  143.3970  158.0824 C.3     1  UNL1        0.0940
     23 N         140.5855  145.9752  155.3713 N.3     1  UNL1       -0.2738
     24 C         139.9937  147.3227  155.0819 C.3     1  UNL1        0.0720
     25 C         140.2461  147.9845  153.7597 C.3     1  UNL1        0.0174
     26 C         141.0902  147.2987  152.7267 C.3     1  UNL1        0.0029
     27 C         141.6821  145.9511  153.0161 C.3     1  UNL1        0.0174
     28 C         141.4297  145.2894  154.3384 C.3     1  UNL1        0.0720
@<TRIPOS>BOND
     1    10    11    1
     2    11    12   ar
     3    12    13   ar
     4    13    14   ar
     5    14     1    1
     6     1     2   ar
     7     2     3   ar
     8     3     4   ar
     9     4     5   ar
    10     5    17    1
    11    17    18    1
    12    18    19    1
    13    19    20    1
    14    20    23    1
    15    23    24    1
    16    24    25    1
    17    25    26    1
    18    26    27    1
    19    27    28    1
    20    20    21    1
    21    21    22    1
    22     5     6   ar
    23     6     7   ar
    24     7     8   ar
    25     8     9   ar
    26    14    15   ar
    27    15    16   ar
    28    16    11   ar
    29     9     1   ar
    30     7     3   ar
    31    22    17    1
    32    28    23    1
@<TRIPOS>MOLECULE
*****
 28 32 0 0 0
SMALL
GASTEIGER

@<TRIPOS>ATOM
      1 C         141.1782  141.8899  164.9053 C.ar    1  UNL1        0.0834
      2 C         141.7194  140.6750  164.2117 C.ar    1  UNL1        0.0273
      3 C         141.3624  140.4076  162.7796 C.ar    1  UNL1        0.0528
      4 S         141.7411  139.3009  161.8406 S.2     1  UNL1       -0.0514
      5 C         141.0770  139.5643  160.5217 C.ar    1  UNL1        0.1631
      6 N         140.2878  140.8339  160.6456 N.ar    1  UNL1       -0.2225
      7 C         140.4642  141.3551  162.0410 C.ar    1  UNL1        0.1084
      8 C         139.9230  142.5700  162.7346 C.ar    1  UNL1        0.1184
      9 N         140.2800  142.8374  164.1667 N.ar    1  UNL1       -0.2422
     10 C         142.6062  142.9598  170.6339 C.3     1  UNL1        0.0521
     11 C         142.2492  142.6923  169.2018 C.ar    1  UNL1        0.0594
     12 C         140.8097  142.6588  168.7813 C.ar    1  UNL1        0.0148
     13 C         140.4527  142.3913  167.3491 C.ar    1  UNL1        0.0043
     14 C         141.5352  142.1574  166.3375 C.ar    1  UNL1        0.0368
     15 C         142.9746  142.1910  166.7579 C.ar    1  UNL1        0.0999
     16 N         143.3317  142.4584  168.1900 N.ar    1  UNL1       -0.2481
     17 N         141.1833  138.7085  159.2944 N.pl3   1  UNL1       -0.2881
     18 C         139.9798  138.4890  158.4265 C.3     1  UNL1        0.0940
     19 C         140.0862  137.6332  157.1992 C.3     1  UNL1        0.0375
     20 C         141.3961  136.9968  156.8399 C.3     1  UNL1        0.0609
     21 C         142.5996  137.2162  157.7078 C.3     1  UNL1        0.0375
     22 C         142.4932  138.0721  158.9351 C.3     1  UNL1        0.0940
     23 N         141.5024  136.1409  155.6126 N.3     1  UNL1       -0.2738
     24 C         142.4395  134.9698  155.5938 C.3     1  UNL1        0.0720
     25 C         142.5459  134.1140  154.3665 C.3     1  UNL1        0.0174
     26 C         141.7151  134.4292  153.1580 C.3     1  UNL1        0.0029
     27 C         140.7781  135.6003  153.1768 C.3     1  UNL1        0.0174
     28 C         140.6717  136.4562  154.4041 C.3     1  UNL1        0.0720
@<TRIPOS>BOND
     1    10    11    1
     2    11    12   ar
     3    12    13   ar
     4    13    14   ar
     5    14     1    1
     6     1     2   ar
     7     2     3   ar
     8     3     4   ar
     9     4     5   ar
    10     5    17    1
    11    17    18    1
    12    18    19    1
    13    19    20    1
    14    20    23    1
    15    23    24    1
    16    24    25    1
    17    25    26    1
    18    26    27    1
    19    27    28    1
    20    20    21    1
    21    21    22    1
    22     5     6   ar
    23     6     7   ar
    24     7     8   ar
    25     8     9   ar
    26    14    15   ar
    27    15    16   ar
    28    16    11   ar
    29     9     1   ar
    30     7     3   ar
    31    22    17    1
    32    28    23    1
@<TRIPOS>MOLECULE
*****
 28 32 0 0 0
SMALL
GASTEIGER

@<TRIPOS>ATOM
      1 C         140.0387  138.3417  157.6439 C.ar    1  UNL1        0.0834
      2 C         140.8965  138.2889  158.8732 C.ar    1  UNL1        0.0273
      3 C         140.5765  139.1634  160.0491 C.ar    1  UNL1        0.0528
      4 S         141.2358  139.3282  161.3863 S.2     1  UNL1       -0.0514
      5 C         140.4654  140.3572  162.1594 C.ar    1  UNL1        0.1631
      6 N         139.3300  140.8284  161.2999 N.ar    1  UNL1       -0.2225
      7 C         139.3986  140.0907  159.9957 C.ar    1  UNL1        0.1084
      8 C         138.5408  140.1434  158.7664 C.ar    1  UNL1        0.1184
      9 N         138.8608  139.2689  157.5905 N.ar    1  UNL1       -0.2422
     10 C         141.3186  134.8436  152.9400 C.3     1  UNL1        0.0521
     11 C         140.9986  135.7181  154.1160 C.ar    1  UNL1        0.0594
     12 C         141.9234  135.7555  155.2964 C.ar    1  UNL1        0.0148
     13 C         141.6034  136.6301  156.4724 C.ar    1  UNL1        0.0043
     14 C         140.3587  137.4671  156.4679 C.ar    1  UNL1        0.0368
     15 C         139.4340  137.4297  155.2874 C.ar    1  UNL1        0.0999
     16 N         139.7539  136.5552  154.1115 N.ar    1  UNL1       -0.2481
     17 N         140.7759  140.8317  163.5481 N.pl3   1  UNL1       -0.2881
     18 C         141.3521  142.2000  163.7619 C.3     1  UNL1        0.0940
     19 C         141.6626  142.6745  165.1506 C.3     1  UNL1        0.0375
     20 C         141.3970  141.7806  166.3255 C.3     1  UNL1        0.0609
     21 C         140.8208  140.4123  166.1117 C.3     1  UNL1        0.0375
     22 C         140.5103  139.9378  164.7230 C.3     1  UNL1        0.0940
     23 N         141.7075  142.2551  167.7141 N.3     1  UNL1       -0.2738
     24 C         143.0688  142.0223  168.2994 C.3     1  UNL1        0.0720
     25 C         143.3793  142.4967  169.6881 C.3     1  UNL1        0.0174
     26 C         142.3285  143.2040  170.4915 C.3     1  UNL1        0.0029
     27 C         140.9672  143.4369  169.9063 C.3     1  UNL1        0.0174
     28 C         140.6567  142.9624  168.5176 C.3     1  UNL1        0.0720
@<TRIPOS>BOND
     1    10    11    1
     2    11    12   ar
     3    12    13   ar
     4    13    14   ar
     5    14     1    1
     6     1     2   ar
     7     2     3   ar
     8     3     4   ar
     9     4     5   ar
    10     5    17    1
    11    17    18    1
    12    18    19    1
    13    19    20    1
    14    20    23    1
    15    23    24    1
    16    24    25    1
    17    25    26    1
    18    26    27    1
    19    27    28    1
    20    20    21    1
    21    21    22    1
    22     5     6   ar
    23     6     7   ar
    24     7     8   ar
    25     8     9   ar
    26    14    15   ar
    27    15    16   ar
    28    16    11   ar
    29     9     1   ar
    30     7     3   ar
    31    22    17    1
    32    28    23    1
@<TRIPOS>MOLECULE
*****
 28 32 0 0 0
SMALL
GASTEIGER

@<TRIPOS>ATOM
      1 C         144.6240  142.5700  157.4020 C.ar    1  UNL1        0.0834
      2 C         144.8502  142.1058  158.8103 C.ar    1  UNL1        0.0273
      3 C         143.7892  142.3175  159.8492 C.ar    1  UNL1        0.0528
      4 S         143.7286  141.9700  161.3072 S.2     1  UNL1       -0.0514
      5 C         142.4039  142.4310  161.8389 C.ar    1  UNL1        0.1631
      6 N         141.6459  143.0635  160.7096 N.ar    1  UNL1       -0.2225
      7 C         142.5020  142.9933  159.4799 C.ar    1  UNL1        0.1084
      8 C         142.2759  143.4575  158.0716 C.ar    1  UNL1        0.1184
      9 N         143.3369  143.2459  157.0327 N.ar    1  UNL1       -0.2422
     10 C         148.8680  141.7235  153.2459 C.3     1  UNL1        0.0521
     11 C         147.8070  141.9351  154.2849 C.ar    1  UNL1        0.0594
     12 C         148.1948  142.2170  155.7063 C.ar    1  UNL1        0.0148
     13 C         147.1338  142.4286  156.7453 C.ar    1  UNL1        0.0043
     14 C         145.6851  142.3584  156.3630 C.ar    1  UNL1        0.0368
     15 C         145.2973  142.0765  154.9416 C.ar    1  UNL1        0.0999
     16 N         146.3582  141.8649  153.9026 N.ar    1  UNL1       -0.2481
     17 N         141.9219  142.2852  163.2518 N.pl3   1  UNL1       -0.2881
     18 C         142.7483  141.5328  164.2523 C.3     1  UNL1        0.0940
     19 C         142.2663  141.3870  165.6653 C.3     1  UNL1        0.0375
     20 C         140.9579  141.9936  166.0777 C.3     1  UNL1        0.0609
     21 C         140.1316  142.7459  165.0773 C.3     1  UNL1        0.0375
     22 C         140.6135  142.8918  163.6643 C.3     1  UNL1        0.0940
     23 N         140.4759  141.8478  167.4907 N.3     1  UNL1       -0.2738
     24 C         139.8231  140.5716  167.9325 C.3     1  UNL1        0.0720
     25 C         139.3411  140.4258  169.3454 C.3     1  UNL1        0.0174
     26 C         139.5120  141.5561  170.3166 C.3     1  UNL1        0.0029
     27 C         140.1648  142.8322  169.8748 C.3     1  UNL1        0.0174
     28 C         140.6468  142.9781  168.4618 C.3     1  UNL1        0.0720
@<TRIPOS>BOND
     1    10    11    1
     2    11    12   ar
     3    12    13   ar
     4    13    14   ar
     5    14     1    1
     6     1     2   ar
     7     2     3   ar
     8     3     4   ar
     9     4     5   ar
    10     5    17    1
    11    17    18    1
    12    18    19    1
    13    19    20    1
    14    20    23    1
    15    23    24    1
    16    24    25    1
    17    25    26    1
    18    26    27    1
    19    27    28    1
    20    20    21    1
    21    21    22    1
    22     5     6   ar
    23     6     7   ar
    24     7     8   ar
    25     8     9   ar
    26    14    15   ar
    27    15    16   ar
    28    16    11   ar
    29     9     1   ar
    30     7     3   ar
    31    22    17    1
    32    28    23    1
@<TRIPOS>MOLECULE
*****
 28 32 0 0 0
SMALL
GASTEIGER

@<TRIPOS>ATOM
      1 C         137.9412  140.7091  157.3496 C.ar    1  UNL1        0.0834
      2 C         137.9192  141.6136  158.5459 C.ar    1  UNL1        0.0273
      3 C         138.7094  141.2574  159.7701 C.ar    1  UNL1        0.0528
      4 S         138.8803  141.9480  161.0906 S.2     1  UNL1       -0.0514
      5 C         139.7982  141.1142  161.9346 C.ar    1  UNL1        0.1631
      6 N         140.1945  139.9081  161.1356 N.ar    1  UNL1       -0.2225
      7 C         139.5217  139.9966  159.7979 C.ar    1  UNL1        0.1084
      8 C         139.5436  139.0921  158.6015 C.ar    1  UNL1        0.1184
      9 N         138.7534  139.4483  157.3774 N.ar    1  UNL1       -0.2422
     10 C         134.7802  142.1339  152.4528 C.3     1  UNL1        0.0521
     11 C         135.5704  141.7777  153.6770 C.ar    1  UNL1        0.0594
     12 C         134.8672  141.2810  154.9053 C.ar    1  UNL1        0.0148
     13 C         135.6575  140.9248  156.1296 C.ar    1  UNL1        0.0043
     14 C         137.1509  141.0653  156.1254 C.ar    1  UNL1        0.0368
     15 C         137.8541  141.5619  154.8970 C.ar    1  UNL1        0.0999
     16 N         137.0639  141.9181  153.6728 N.ar    1  UNL1       -0.2481
     17 N         140.2417  141.4307  163.3321 N.pl3   1  UNL1       -0.2881
     18 C         140.2747  142.8541  163.8042 C.3     1  UNL1        0.0940
     19 C         140.7182  143.1707  165.2017 C.3     1  UNL1        0.0375
     20 C         141.1289  142.0639  166.1271 C.3     1  UNL1        0.0609
     21 C         141.0960  140.6405  165.6549 C.3     1  UNL1        0.0375
     22 C         140.6524  140.3240  164.2574 C.3     1  UNL1        0.0940
     23 N         141.5725  142.3805  167.5246 N.3     1  UNL1       -0.2738
     24 C         140.6119  143.0043  168.4931 C.3     1  UNL1        0.0720
     25 C         141.0555  143.3208  169.8907 C.3     1  UNL1        0.0174
     26 C         142.4596  143.0136  170.3196 C.3     1  UNL1        0.0029
     27 C         143.4202  142.3898  169.3510 C.3     1  UNL1        0.0174
     28 C         142.9766  142.0732  167.9535 C.3     1  UNL1        0.0720
@<TRIPOS>BOND
     1    10    11    1
     2    11    12   ar
     3    12    13   ar
     4    13    14   ar
     5    14     1    1
     6     1     2   ar
     7     2     3   ar
     8     3     4   ar
     9     4     5   ar
    10     5    17    1
    11    17    18    1
    12    18    19    1
    13    19    20    1
    14    20    23    1
    15    23    24    1
    16    24    25    1
    17    25    26    1
    18    26    27    1
    19    27    28    1
    20    20    21    1
    21    21    22    1
    22     5     6   ar
    23     6     7   ar
    24     7     8   ar
    25     8     9   ar
    26    14    15   ar
    27    15    16   ar
    28    16    11   ar
    29     9     1   ar
    30     7     3   ar
    31    22    17    1
    32    28    23    1
