@<TRIPOS>MOLECULE
*****
 34 38 0 0 0
SMALL
GASTEIGER

@<TRIPOS>ATOM
      1 C         140.4361  143.7364  163.2119 C.ar    1  UNL1        0.0045
      2 C         140.9131  142.3351  162.9695 C.ar    1  UNL1        0.0002
      3 C         141.1559  141.4145  164.1286 C.ar    1  UNL1        0.0018
      4 C         140.9216  141.8952  165.5301 C.ar    1  UNL1        0.0259
      5 C         140.4446  143.2965  165.7724 C.ar    1  UNL1        0.0812
      6 C         140.2019  144.2171  164.6133 C.ar    1  UNL1        0.0192
      7 N         140.3019  143.4880  167.2533 N.2     1  UNL1       -0.2485
      8 C         140.6907  142.2049  167.9262 C.2     1  UNL1        0.0825
      9 C         140.7454  141.8059  169.3710 C.3     1  UNL1        0.1853
     10 C         141.1832  140.4224  169.7509 C.2     1  UNL1        0.2236
     11 N         141.5662  139.4380  168.6859 N.2     1  UNL1       -0.0404
     12 C         141.5115  139.8371  167.2410 C.2     1  UNL1        0.3221
     13 C         141.0737  141.2205  166.8612 C.2     1  UNL1        0.0979
     14 C         140.2991  145.7277  158.3234 C.3     1  UNL1        0.1538
     15 N         140.1304  145.5724  159.8058 N.ar    1  UNL1       -0.2473
     16 C         140.5532  144.3869  160.6218 C.ar    1  UNL1        0.0967
     17 C         140.1934  144.6571  162.0528 C.ar    1  UNL1        0.0397
     18 C         139.5482  146.0095  162.1211 C.ar    1  UNL1        0.1216
     19 N         139.5092  146.5752  160.7324 N.ar    1  UNL1       -0.1676
     20 C         140.3624  142.7904  170.4361 C.2     1  UNL1        0.2327
     21 N         140.1051  144.2234  170.0753 N.am    1  UNL1       -0.3281
     22 O         140.2367  142.3417  171.8619 O.2     1  UNL1       -0.2744
     23 H         140.1876  144.5179  169.1396 H       1  UNL1        0.1450
     24 H         139.8537  144.8695  170.7744 H       1  UNL1        0.1450
     25 N         141.8945  138.8527  166.1761 N.pl3   1  UNL1       -0.2150
     26 H         142.8300  138.5580  166.0916 H       1  UNL1        0.2924
     27 C         140.8521  138.3173  165.2397 C.3     1  UNL1        0.2519
     28 C         141.2625  137.6838  163.9435 C.3     1  UNL1        0.4364
     29 F         141.6730  137.0502  162.6473 F       1  UNL1       -0.1661
     30 F         139.8455  137.2532  163.7052 F       1  UNL1       -0.1661
     31 F         142.6795  138.1143  164.1818 F       1  UNL1       -0.1661
     32 C         139.3992  138.4155  165.5995 C.3     1  UNL1        0.0513
     33 C         138.1566  137.7956  166.1669 C.3     1  UNL1        0.0044
     34 C         138.1252  139.2054  165.6554 C.3     1  UNL1        0.0044
@<TRIPOS>BOND
     1    14    15    1
     2    15    16   ar
     3    16    17   ar
     4    17     1    1
     5     1     2   ar
     6     2     3   ar
     7     3     4   ar
     8     4     5   ar
     9     5     6   ar
    10     5     7    1
    11     7     8    2
    12     8     9    1
    13     9    20    1
    14    20    21   am
    15    20    22    2
    16     9    10    1
    17    10    11    2
    18    11    12    1
    19    12    25    1
    20    27    25    1
    21    27    32    1
    22    32    33    1
    23    33    34    1
    24    27    28    1
    25    28    29    1
    26    28    30    1
    27    28    31    1
    28    12    13    2
    29    17    18   ar
    30    18    19   ar
    31    19    15   ar
    32     6     1   ar
    33    13     8    1
    34    13     4    1
    35    34    32    1
    36    21    23    1
    37    21    24    1
    38    25    26    1
@<TRIPOS>MOLECULE
*****
 34 38 0 0 0
SMALL
GASTEIGER

@<TRIPOS>ATOM
      1 C         140.6003  138.9733  159.5926 C.ar    1  UNL1        0.0045
      2 C         139.8341  138.3238  160.7066 C.ar    1  UNL1        0.0002
      3 C         139.2677  139.1609  161.8149 C.ar    1  UNL1        0.0018
      4 C         139.4674  140.6476  161.8091 C.ar    1  UNL1        0.0259
      5 C         140.2336  141.2971  160.6951 C.ar    1  UNL1        0.0812
      6 C         140.8000  140.4599  159.5868 C.ar    1  UNL1        0.0192
      7 N         140.2690  142.7737  160.9563 N.2     1  UNL1       -0.2485
      8 C         139.5247  143.0368  162.2318 C.2     1  UNL1        0.0825
      9 C         139.2342  144.3032  162.9812 C.3     1  UNL1        0.1853
     10 C         138.4481  144.2555  164.2579 C.2     1  UNL1        0.2236
     11 N         137.9527  142.9415  164.7850 N.2     1  UNL1       -0.0404
     12 C         138.2433  141.6752  164.0355 C.2     1  UNL1        0.3221
     13 C         139.0293  141.7228  162.7589 C.2     1  UNL1        0.0979
     14 C         141.0346  136.1403  155.1578 C.3     1  UNL1        0.1538
     15 N         141.3663  136.8340  156.4458 N.ar    1  UNL1       -0.2473
     16 C         140.4124  137.6215  157.2942 C.ar    1  UNL1        0.0967
     17 C         141.1667  138.1362  158.4842 C.ar    1  UNL1        0.0397
     18 C         142.5869  137.6668  158.3712 C.ar    1  UNL1        0.1216
     19 N         142.7103  136.8620  157.1115 N.ar    1  UNL1       -0.1676
     20 C         139.7296  145.6173  162.4541 C.2     1  UNL1        0.2327
     21 N         140.9962  146.2125  162.9941 N.am    1  UNL1       -0.3281
     22 O         138.9584  146.3362  161.3871 O.2     1  UNL1       -0.2744
     23 H         141.5023  145.7407  163.6944 H       1  UNL1        0.1450
     24 H         141.3213  147.0750  162.6481 H       1  UNL1        0.1450
     25 N         137.7479  140.3611  164.5626 N.pl3   1  UNL1       -0.2150
     26 H         136.9045  139.9818  164.2249 H       1  UNL1        0.2924
     27 C         138.5375  139.6251  165.6042 C.3     1  UNL1        0.2519
     28 C         138.1273  138.2431  166.0186 C.3     1  UNL1        0.4364
     29 F         137.7171  136.8611  166.4331 F       1  UNL1       -0.1661
     30 F         138.9124  137.6678  164.8774 F       1  UNL1       -0.1661
     31 F         137.3421  138.8184  167.1599 F       1  UNL1       -0.1661
     32 C         139.7372  140.2711  166.2312 C.3     1  UNL1        0.0513
     33 C         141.2257  140.3692  166.3899 C.3     1  UNL1        0.0044
     34 C         140.3270  141.2918  167.1588 C.3     1  UNL1        0.0044
@<TRIPOS>BOND
     1    14    15    1
     2    15    16   ar
     3    16    17   ar
     4    17     1    1
     5     1     2   ar
     6     2     3   ar
     7     3     4   ar
     8     4     5   ar
     9     5     6   ar
    10     5     7    1
    11     7     8    2
    12     8     9    1
    13     9    20    1
    14    20    21   am
    15    20    22    2
    16     9    10    1
    17    10    11    2
    18    11    12    1
    19    12    25    1
    20    27    25    1
    21    27    32    1
    22    32    33    1
    23    33    34    1
    24    27    28    1
    25    28    29    1
    26    28    30    1
    27    28    31    1
    28    12    13    2
    29    17    18   ar
    30    18    19   ar
    31    19    15   ar
    32     6     1   ar
    33    13     8    1
    34    13     4    1
    35    34    32    1
    36    21    23    1
    37    21    24    1
    38    25    26    1
@<TRIPOS>MOLECULE
*****
 34 38 0 0 0
SMALL
GASTEIGER

@<TRIPOS>ATOM
      1 C         141.8205  139.4088  158.8050 C.ar    1  UNL1        0.0045
      2 C         140.9180  138.5495  159.6398 C.ar    1  UNL1        0.0002
      3 C         140.0954  139.1656  160.7323 C.ar    1  UNL1        0.0018
      4 C         140.1754  140.6411  160.9902 C.ar    1  UNL1        0.0259
      5 C         141.0780  141.5005  160.1554 C.ar    1  UNL1        0.0812
      6 C         141.9005  140.8844  159.0629 C.ar    1  UNL1        0.0192
      7 N         140.9491  142.9145  160.6390 N.2     1  UNL1       -0.2485
      8 C         139.9669  142.9291  161.7726 C.2     1  UNL1        0.0825
      9 C         139.4462  144.0402  162.6352 C.3     1  UNL1        0.1853
     10 C         138.4473  143.7463  163.7149 C.2     1  UNL1        0.2236
     11 N         137.9691  142.3413  163.9320 N.2     1  UNL1       -0.0404
     12 C         138.4898  141.2302  163.0693 C.2     1  UNL1        0.3221
     13 C         139.4887  141.5241  161.9897 C.2     1  UNL1        0.0979
     14 C         143.9794  135.8754  155.5285 C.3     1  UNL1        0.1538
     15 N         143.6354  137.1686  156.2064 N.ar    1  UNL1       -0.2473
     16 C         142.6841  137.3368  157.3538 C.ar    1  UNL1        0.0967
     17 C         142.6431  138.7927  157.7124 C.ar    1  UNL1        0.0397
     18 C         143.5691  139.5243  156.7866 C.ar    1  UNL1        0.1216
     19 N         144.1824  138.5206  155.8558 N.ar    1  UNL1       -0.1676
     20 C         139.9244  145.4454  162.4182 C.2     1  UNL1        0.2327
     21 N         141.1433  145.9424  163.1375 N.am    1  UNL1       -0.3281
     22 O         139.1837  146.3535  161.4818 O.2     1  UNL1       -0.2744
     23 H         141.6294  145.3463  163.7520 H       1  UNL1        0.1450
     24 H         141.4571  146.8646  162.9950 H       1  UNL1        0.1450
     25 N         138.0116  139.8251  163.2864 N.pl3   1  UNL1       -0.2150
     26 H         137.2129  139.4983  162.8127 H       1  UNL1        0.2924
     27 C         138.7504  138.9180  164.2253 C.3     1  UNL1        0.2519
     28 C         139.7151  137.9044  163.6851 C.3     1  UNL1        0.4364
     29 F         140.6798  136.8907  163.1449 F       1  UNL1       -0.1661
     30 F         140.8544  138.6588  164.3039 F       1  UNL1       -0.1661
     31 F         138.5759  137.1499  163.0663 F       1  UNL1       -0.1661
     32 C         138.5245  139.0246  165.7043 C.3     1  UNL1        0.0513
     33 C         138.9197  139.5753  167.0425 C.3     1  UNL1        0.0044
     34 C         137.7379  138.6585  166.9280 C.3     1  UNL1        0.0044
@<TRIPOS>BOND
     1    14    15    1
     2    15    16   ar
     3    16    17   ar
     4    17     1    1
     5     1     2   ar
     6     2     3   ar
     7     3     4   ar
     8     4     5   ar
     9     5     6   ar
    10     5     7    1
    11     7     8    2
    12     8     9    1
    13     9    20    1
    14    20    21   am
    15    20    22    2
    16     9    10    1
    17    10    11    2
    18    11    12    1
    19    12    25    1
    20    27    25    1
    21    27    32    1
    22    32    33    1
    23    33    34    1
    24    27    28    1
    25    28    29    1
    26    28    30    1
    27    28    31    1
    28    12    13    2
    29    17    18   ar
    30    18    19   ar
    31    19    15   ar
    32     6     1   ar
    33    13     8    1
    34    13     4    1
    35    34    32    1
    36    21    23    1
    37    21    24    1
    38    25    26    1
@<TRIPOS>MOLECULE
*****
 34 38 0 0 0
SMALL
GASTEIGER

@<TRIPOS>ATOM
      1 C         140.8235  138.9600  159.5779 C.ar    1  UNL1        0.0045
      2 C         139.9231  138.3213  160.5934 C.ar    1  UNL1        0.0002
      3 C         139.5347  139.0749  161.8307 C.ar    1  UNL1        0.0018
      4 C         140.0467  140.4673  162.0525 C.ar    1  UNL1        0.0259
      5 C         140.9471  141.1060  161.0370 C.ar    1  UNL1        0.0812
      6 C         141.3355  140.3523  159.7997 C.ar    1  UNL1        0.0192
      7 N         141.2931  142.4817  161.5245 N.2     1  UNL1       -0.2485
      8 C         140.6065  142.6933  162.8413 C.2     1  UNL1        0.0825
      9 C         140.5833  143.8587  163.7852 C.3     1  UNL1        0.1853
     10 C         139.7898  143.7792  165.0556 C.2     1  UNL1        0.2236
     11 N         139.0194  142.5342  165.3820 N.2     1  UNL1       -0.0404
     12 C         139.0426  141.3688  164.4380 C.2     1  UNL1        0.3221
     13 C         139.8362  141.4483  163.1677 C.2     1  UNL1        0.0979
     14 C         143.6858  136.4666  155.9075 C.3     1  UNL1        0.1538
     15 N         142.5277  137.0602  156.6534 N.ar    1  UNL1       -0.2473
     16 C         142.6018  137.7854  157.9643 C.ar    1  UNL1        0.0967
     17 C         141.2120  138.2063  158.3405 C.ar    1  UNL1        0.0397
     18 C         140.2790  137.7412  157.2620 C.ar    1  UNL1        0.1216
     19 N         141.0921  137.0329  156.2193 N.ar    1  UNL1       -0.1676
     20 C         141.3537  145.1038  163.4589 C.2     1  UNL1        0.2327
     21 N         140.7054  146.2012  162.6681 N.am    1  UNL1       -0.3281
     22 O         142.7724  145.2513  163.9233 O.2     1  UNL1       -0.2744
     23 H         139.7743  146.1044  162.3633 H       1  UNL1        0.1450
     24 H         141.2110  147.0184  162.4539 H       1  UNL1        0.1450
     25 N         138.2723  140.1238  164.7644 N.pl3   1  UNL1       -0.2150
     26 H         137.3291  140.0435  164.4940 H       1  UNL1        0.2924
     27 C         138.9391  139.0011  165.5027 C.3     1  UNL1        0.2519
     28 C         138.1109  138.0004  166.2528 C.3     1  UNL1        0.4364
     29 F         137.2827  136.9996  167.0028 F       1  UNL1       -0.1661
     30 F         137.4648  139.1130  167.0239 F       1  UNL1       -0.1661
     31 F         138.7569  136.8878  165.4816 F       1  UNL1       -0.1661
     32 C         140.4340  138.8792  165.4910 C.3     1  UNL1        0.0513
     33 C         141.6892  138.3467  164.8654 C.3     1  UNL1        0.0044
     34 C         141.7684  139.2005  166.0962 C.3     1  UNL1        0.0044
@<TRIPOS>BOND
     1    14    15    1
     2    15    16   ar
     3    16    17   ar
     4    17     1    1
     5     1     2   ar
     6     2     3   ar
     7     3     4   ar
     8     4     5   ar
     9     5     6   ar
    10     5     7    1
    11     7     8    2
    12     8     9    1
    13     9    20    1
    14    20    21   am
    15    20    22    2
    16     9    10    1
    17    10    11    2
    18    11    12    1
    19    12    25    1
    20    27    25    1
    21    27    32    1
    22    32    33    1
    23    33    34    1
    24    27    28    1
    25    28    29    1
    26    28    30    1
    27    28    31    1
    28    12    13    2
    29    17    18   ar
    30    18    19   ar
    31    19    15   ar
    32     6     1   ar
    33    13     8    1
    34    13     4    1
    35    34    32    1
    36    21    23    1
    37    21    24    1
    38    25    26    1
@<TRIPOS>MOLECULE
*****
 34 38 0 0 0
SMALL
GASTEIGER

@<TRIPOS>ATOM
      1 C         138.2438  140.8089  159.0746 C.ar    1  UNL1        0.0045
      2 C         137.5679  139.9714  160.1194 C.ar    1  UNL1        0.0002
      3 C         137.8684  140.1973  161.5715 C.ar    1  UNL1        0.0018
      4 C         138.8449  141.2607  161.9787 C.ar    1  UNL1        0.0259
      5 C         139.5208  142.0981  160.9339 C.ar    1  UNL1        0.0812
      6 C         139.2202  141.8722  159.4818 C.ar    1  UNL1        0.0192
      7 N         140.4308  143.0648  161.6320 N.2     1  UNL1       -0.2485
      8 C         140.3173  142.8248  163.1083 C.2     1  UNL1        0.0825
      9 C         140.9798  143.4775  164.2851 C.3     1  UNL1        0.1853
     10 C         140.6622  143.0152  165.6763 C.2     1  UNL1        0.2236
     11 N         139.6821  141.9002  165.8906 N.2     1  UNL1       -0.0404
     12 C         139.0195  141.2475  164.7138 C.2     1  UNL1        0.3221
     13 C         139.3371  141.7098  163.3227 C.2     1  UNL1        0.0979
     14 C         135.8197  140.8417  154.3837 C.3     1  UNL1        0.1538
     15 N         136.8290  140.5981  155.4663 N.ar    1  UNL1       -0.2473
     16 C         136.7120  141.0370  156.8958 C.ar    1  UNL1        0.0967
     17 C         137.9433  140.5830  157.6224 C.ar    1  UNL1        0.0397
     18 C         138.8213  139.8635  156.6419 C.ar    1  UNL1        0.1216
     19 N         138.1327  139.8728  155.3093 N.ar    1  UNL1       -0.1676
     20 C         141.9600  144.5927  164.0708 C.2     1  UNL1        0.2327
     21 N         141.5272  145.8479  163.3730 N.am    1  UNL1       -0.3281
     22 O         143.3730  144.4524  164.5544 O.2     1  UNL1       -0.2744
     23 H         140.5998  145.9399  163.0556 H       1  UNL1        0.1450
     24 H         142.1705  146.5798  163.2323 H       1  UNL1        0.1450
     25 N         138.0394  140.1324  164.9281 N.pl3   1  UNL1       -0.2150
     26 H         137.0744  140.2989  164.8262 H       1  UNL1        0.2924
     27 C         138.5294  138.7638  165.2978 C.3     1  UNL1        0.2519
     28 C         137.8637  138.0026  166.4057 C.3     1  UNL1        0.4364
     29 F         137.1980  137.2415  167.5136 F       1  UNL1       -0.1661
     30 F         137.5547  139.2925  167.1061 F       1  UNL1       -0.1661
     31 F         138.1728  136.7127  165.7052 F       1  UNL1       -0.1661
     32 C         139.6852  138.1562  164.5595 C.3     1  UNL1        0.0513
     33 C         141.0955  137.6451  164.5485 C.3     1  UNL1        0.0044
     34 C         140.2769  137.6151  163.2918 C.3     1  UNL1        0.0044
@<TRIPOS>BOND
     1    14    15    1
     2    15    16   ar
     3    16    17   ar
     4    17     1    1
     5     1     2   ar
     6     2     3   ar
     7     3     4   ar
     8     4     5   ar
     9     5     6   ar
    10     5     7    1
    11     7     8    2
    12     8     9    1
    13     9    20    1
    14    20    21   am
    15    20    22    2
    16     9    10    1
    17    10    11    2
    18    11    12    1
    19    12    25    1
    20    27    25    1
    21    27    32    1
    22    32    33    1
    23    33    34    1
    24    27    28    1
    25    28    29    1
    26    28    30    1
    27    28    31    1
    28    12    13    2
    29    17    18   ar
    30    18    19   ar
    31    19    15   ar
    32     6     1   ar
    33    13     8    1
    34    13     4    1
    35    34    32    1
    36    21    23    1
    37    21    24    1
    38    25    26    1
@<TRIPOS>MOLECULE
*****
 34 38 0 0 0
SMALL
GASTEIGER

@<TRIPOS>ATOM
      1 C         141.3058  139.0095  159.9529 C.ar    1  UNL1        0.0045
      2 C         141.9833  140.3390  160.1057 C.ar    1  UNL1        0.0002
      3 C         141.8897  141.0836  161.4044 C.ar    1  UNL1        0.0018
      4 C         141.1185  140.4987  162.5504 C.ar    1  UNL1        0.0259
      5 C         140.4410  139.1693  162.3976 C.ar    1  UNL1        0.0812
      6 C         140.5346  138.4247  161.0989 C.ar    1  UNL1        0.0192
      7 N         139.7567  138.8462  163.6928 N.2     1  UNL1       -0.2485
      8 C         140.0114  139.9760  164.6460 C.2     1  UNL1        0.0825
      9 C         139.5856  140.2067  166.0656 C.3     1  UNL1        0.1853
     10 C         140.0015  141.4588  166.7793 C.2     1  UNL1        0.2236
     11 N         140.8432  142.4801  166.0733 N.2     1  UNL1       -0.0404
     12 C         141.2689  142.2494  164.6536 C.2     1  UNL1        0.3221
     13 C         140.8530  140.9974  163.9400 C.2     1  UNL1        0.0979
     14 C         143.2117  136.2696  155.8613 C.3     1  UNL1        0.1538
     15 N         142.2755  137.0054  156.7734 N.ar    1  UNL1       -0.2473
     16 C         142.6388  137.6435  158.0814 C.ar    1  UNL1        0.0967
     17 C         141.3994  138.2649  158.6541 C.ar    1  UNL1        0.0397
     18 C         140.2702  138.0108  157.7001 C.ar    1  UNL1        0.1216
     19 N         140.8116  137.2324  156.5378 N.ar    1  UNL1       -0.1676
     20 C         138.7440  139.1853  166.7717 C.2     1  UNL1        0.2327
     21 N         138.1810  138.0216  166.0108 N.am    1  UNL1       -0.3281
     22 O         138.4653  139.3276  168.2387 O.2     1  UNL1       -0.2744
     23 H         138.3640  137.9282  165.0479 H       1  UNL1        0.1450
     24 H         137.6287  137.3513  166.4742 H       1  UNL1        0.1450
     25 N         142.1105  143.2708  163.9476 N.pl3   1  UNL1       -0.2150
     26 H         141.6994  143.8790  163.2917 H       1  UNL1        0.2924
     27 C         143.5785  143.3653  164.2410 C.3     1  UNL1        0.2519
     28 C         144.1476  144.6257  164.8220 C.3     1  UNL1        0.4364
     29 F         144.7166  145.8861  165.4030 F       1  UNL1       -0.1661
     30 F         143.3727  145.4352  163.8249 F       1  UNL1       -0.1661
     31 F         144.9225  143.8163  165.8191 F       1  UNL1       -0.1661
     32 C         144.4775  142.1995  163.9534 C.3     1  UNL1        0.0513
     33 C         144.7342  140.7217  163.9710 C.3     1  UNL1        0.0044
     34 C         145.7778  141.6580  163.4376 C.3     1  UNL1        0.0044
@<TRIPOS>BOND
     1    14    15    1
     2    15    16   ar
     3    16    17   ar
     4    17     1    1
     5     1     2   ar
     6     2     3   ar
     7     3     4   ar
     8     4     5   ar
     9     5     6   ar
    10     5     7    1
    11     7     8    2
    12     8     9    1
    13     9    20    1
    14    20    21   am
    15    20    22    2
    16     9    10    1
    17    10    11    2
    18    11    12    1
    19    12    25    1
    20    27    25    1
    21    27    32    1
    22    32    33    1
    23    33    34    1
    24    27    28    1
    25    28    29    1
    26    28    30    1
    27    28    31    1
    28    12    13    2
    29    17    18   ar
    30    18    19   ar
    31    19    15   ar
    32     6     1   ar
    33    13     8    1
    34    13     4    1
    35    34    32    1
    36    21    23    1
    37    21    24    1
    38    25    26    1
@<TRIPOS>MOLECULE
*****
 34 38 0 0 0
SMALL
GASTEIGER

@<TRIPOS>ATOM
      1 C         137.3789  138.9007  170.0005 C.ar    1  UNL1        0.0045
      2 C         138.4706  139.9068  170.2143 C.ar    1  UNL1        0.0002
      3 C         139.2454  140.4332  169.0428 C.ar    1  UNL1        0.0018
      4 C         138.9285  139.9534  167.6574 C.ar    1  UNL1        0.0259
      5 C         137.8368  138.9473  167.4435 C.ar    1  UNL1        0.0812
      6 C         137.0620  138.4209  168.6151 C.ar    1  UNL1        0.0192
      7 N         137.7508  138.6620  165.9734 N.2     1  UNL1       -0.2485
      8 C         138.7895  139.4918  165.2787 C.2     1  UNL1        0.0825
      9 C         139.1665  139.6237  163.8329 C.3     1  UNL1        0.1853
     10 C         140.2714  140.5538  163.4278 C.2     1  UNL1        0.2236
     11 N         140.9992  141.3520  164.4685 N.2     1  UNL1       -0.0404
     12 C         140.6222  141.2200  165.9143 C.2     1  UNL1        0.3221
     13 C         139.5173  140.2900  166.3194 C.2     1  UNL1        0.0979
     14 C         135.8784  135.9415  174.1081 C.3     1  UNL1        0.1538
     15 N         135.9144  137.0141  173.0601 N.ar    1  UNL1       -0.2473
     16 C         136.9619  137.1748  171.9986 C.ar    1  UNL1        0.0967
     17 C         136.6040  138.3743  171.1721 C.ar    1  UNL1        0.0397
     18 C         135.3354  138.9549  171.7228 C.ar    1  UNL1        0.1216
     19 N         134.9091  138.1143  172.8897 N.ar    1  UNL1       -0.1676
     20 C         138.4386  138.8255  162.7921 C.2     1  UNL1        0.2327
     21 N         138.4694  137.3266  162.8391 N.am    1  UNL1       -0.3281
     22 O         137.6799  139.5264  161.7043 O.2     1  UNL1       -0.2744
     23 H         138.9673  136.8666  163.5531 H       1  UNL1        0.1450
     24 H         137.9917  136.8027  162.1560 H       1  UNL1        0.1450
     25 N         141.3500  142.0182  166.9550 N.pl3   1  UNL1       -0.2150
     26 H         141.1228  142.9655  167.0969 H       1  UNL1        0.2924
     27 C         142.4242  141.3730  167.7796 C.3     1  UNL1        0.2519
     28 C         142.9534  140.0224  167.3978 C.3     1  UNL1        0.4364
     29 F         143.4826  138.6717  167.0160 F       1  UNL1       -0.1661
     30 F         142.2792  139.4199  168.5947 F       1  UNL1       -0.1661
     31 F         143.6275  140.6248  166.2010 F       1  UNL1       -0.1661
     32 C         142.9691  142.0784  168.9860 C.3     1  UNL1        0.0513
     33 C         144.1345  142.4721  169.8446 C.3     1  UNL1        0.0044
     34 C         142.7478  142.9064  170.2170 C.3     1  UNL1        0.0044
@<TRIPOS>BOND
     1    14    15    1
     2    15    16   ar
     3    16    17   ar
     4    17     1    1
     5     1     2   ar
     6     2     3   ar
     7     3     4   ar
     8     4     5   ar
     9     5     6   ar
    10     5     7    1
    11     7     8    2
    12     8     9    1
    13     9    20    1
    14    20    21   am
    15    20    22    2
    16     9    10    1
    17    10    11    2
    18    11    12    1
    19    12    25    1
    20    27    25    1
    21    27    32    1
    22    32    33    1
    23    33    34    1
    24    27    28    1
    25    28    29    1
    26    28    30    1
    27    28    31    1
    28    12    13    2
    29    17    18   ar
    30    18    19   ar
    31    19    15   ar
    32     6     1   ar
    33    13     8    1
    34    13     4    1
    35    34    32    1
    36    21    23    1
    37    21    24    1
    38    25    26    1
@<TRIPOS>MOLECULE
*****
 34 38 0 0 0
SMALL
GASTEIGER

@<TRIPOS>ATOM
      1 C         139.4453  139.8749  160.3317 C.ar    1  UNL1        0.0045
      2 C         140.3977  140.9521  160.7589 C.ar    1  UNL1        0.0002
      3 C         140.6058  141.2340  162.2173 C.ar    1  UNL1        0.0018
      4 C         139.8615  140.4388  163.2486 C.ar    1  UNL1        0.0259
      5 C         138.9090  139.3616  162.8214 C.ar    1  UNL1        0.0812
      6 C         138.7009  139.0797  161.3630 C.ar    1  UNL1        0.0192
      7 N         138.3202  138.7470  164.0565 N.2     1  UNL1       -0.2485
      8 C         138.9088  139.4442  165.2471 C.2     1  UNL1        0.0825
      9 C         138.7004  139.2621  166.7213 C.3     1  UNL1        0.1853
     10 C         139.4447  140.1256  167.6962 C.2     1  UNL1        0.2236
     11 N         140.3972  141.1712  167.1970 N.2     1  UNL1       -0.0404
     12 C         140.6055  141.3533  165.7227 C.2     1  UNL1        0.3221
     13 C         139.8614  140.4898  164.7478 C.2     1  UNL1        0.0979
     14 C         139.7579  137.6530  155.5519 C.3     1  UNL1        0.1538
     15 N         139.3809  138.5716  156.6761 N.ar    1  UNL1       -0.2473
     16 C         139.8655  138.4768  158.0925 C.ar    1  UNL1        0.0967
     17 C         139.2371  139.5930  158.8732 C.ar    1  UNL1        0.0397
     18 C         138.3641  140.3776  157.9393 C.ar    1  UNL1        0.1216
     19 N         138.4529  139.7464  156.5814 N.ar    1  UNL1       -0.1676
     20 C         137.7478  138.2164  167.2206 C.2     1  UNL1        0.2327
     21 N         137.5290  136.9616  166.4285 N.am    1  UNL1       -0.3281
     22 O         137.0141  138.4257  168.5121 O.2     1  UNL1       -0.2744
     23 H         138.0106  136.8242  165.5809 H       1  UNL1        0.1450
     24 H         136.9038  136.2753  166.7563 H       1  UNL1        0.1450
     25 N         141.5581  142.3989  165.2234 N.pl3   1  UNL1       -0.2150
     26 H         142.5262  142.2201  165.2171 H       1  UNL1        0.2924
     27 C         141.0356  143.7170  164.7338 C.3     1  UNL1        0.2519
     28 C         141.9558  144.6779  164.0410 C.3     1  UNL1        0.4364
     29 F         142.8759  145.6388  163.3481 F       1  UNL1       -0.1661
     30 F         140.7892  145.2606  163.2997 F       1  UNL1       -0.1661
     31 F         143.1224  144.0952  164.7822 F       1  UNL1       -0.1661
     32 C         139.5931  144.0742  164.9370 C.3     1  UNL1        0.0513
     33 C         138.5438  144.9106  165.6076 C.3     1  UNL1        0.0044
     34 C         138.1435  143.8565  164.6183 C.3     1  UNL1        0.0044
@<TRIPOS>BOND
     1    14    15    1
     2    15    16   ar
     3    16    17   ar
     4    17     1    1
     5     1     2   ar
     6     2     3   ar
     7     3     4   ar
     8     4     5   ar
     9     5     6   ar
    10     5     7    1
    11     7     8    2
    12     8     9    1
    13     9    20    1
    14    20    21   am
    15    20    22    2
    16     9    10    1
    17    10    11    2
    18    11    12    1
    19    12    25    1
    20    27    25    1
    21    27    32    1
    22    32    33    1
    23    33    34    1
    24    27    28    1
    25    28    29    1
    26    28    30    1
    27    28    31    1
    28    12    13    2
    29    17    18   ar
    30    18    19   ar
    31    19    15   ar
    32     6     1   ar
    33    13     8    1
    34    13     4    1
    35    34    32    1
    36    21    23    1
    37    21    24    1
    38    25    26    1
@<TRIPOS>MOLECULE
*****
 34 38 0 0 0
SMALL
GASTEIGER

@<TRIPOS>ATOM
      1 C         140.0464  141.4509  166.5209 C.ar    1  UNL1        0.0045
      2 C         140.8622  142.6346  166.0930 C.ar    1  UNL1        0.0002
      3 C         140.8608  143.0666  164.6566 C.ar    1  UNL1        0.0018
      4 C         140.0436  142.3149  163.6481 C.ar    1  UNL1        0.0259
      5 C         139.2278  141.1311  164.0761 C.ar    1  UNL1        0.0812
      6 C         139.2292  140.6992  165.5125 C.ar    1  UNL1        0.0192
      7 N         138.5262  140.5898  162.8658 N.2     1  UNL1       -0.2485
      8 C         138.9084  141.4390  161.6899 C.2     1  UNL1        0.0825
      9 C         138.5237  141.3791  160.2413 C.3     1  UNL1        0.1853
     10 C         139.0767  142.3855  159.2762 C.2     1  UNL1        0.2236
     11 N         140.0146  143.4516  159.7597 N.2     1  UNL1       -0.0404
     12 C         140.3993  143.5114  161.2083 C.2     1  UNL1        0.3221
     13 C         139.8463  142.5052  162.1733 C.2     1  UNL1        0.0979
     14 C         141.1707  141.1415  171.6709 C.3     1  UNL1        0.1538
     15 N         140.5646  140.8767  170.3246 N.ar    1  UNL1       -0.2473
     16 C         140.8813  141.6105  169.0553 C.ar    1  UNL1        0.0967
     17 C         140.0478  141.0188  167.9574 C.ar    1  UNL1        0.0397
     18 C         139.2160  139.9193  168.5482 C.ar    1  UNL1        0.1216
     19 N         139.5353  139.8314  170.0112 N.ar    1  UNL1       -0.1676
     20 C         137.5858  140.3129  159.7578 C.2     1  UNL1        0.2327
     21 N         136.8580  139.4500  160.7455 N.am    1  UNL1       -0.3281
     22 O         137.3758  140.1097  158.2865 O.2     1  UNL1       -0.2744
     23 H         136.9958  139.5834  161.7112 H       1  UNL1        0.1450
     24 H         136.2424  138.7502  160.4282 H       1  UNL1        0.1450
     25 N         141.3371  144.5776  161.6918 N.pl3   1  UNL1       -0.2150
     26 H         141.0291  145.5102  161.7598 H       1  UNL1        0.2924
     27 C         142.7442  144.2229  162.0715 C.3     1  UNL1        0.2519
     28 C         143.4306  144.9621  163.1816 C.3     1  UNL1        0.4364
     29 F         144.1169  145.7014  164.2918 F       1  UNL1       -0.1661
     30 F         142.1614  145.7080  163.4695 F       1  UNL1       -0.1661
     31 F         144.6997  144.2162  162.8938 F       1  UNL1       -0.1661
     32 C         143.4651  143.1288  161.3411 C.3     1  UNL1        0.0513
     33 C         143.8402  141.6824  161.2101 C.3     1  UNL1        0.0044
     34 C         144.3384  142.6803  160.2070 C.3     1  UNL1        0.0044
@<TRIPOS>BOND
     1    14    15    1
     2    15    16   ar
     3    16    17   ar
     4    17     1    1
     5     1     2   ar
     6     2     3   ar
     7     3     4   ar
     8     4     5   ar
     9     5     6   ar
    10     5     7    1
    11     7     8    2
    12     8     9    1
    13     9    20    1
    14    20    21   am
    15    20    22    2
    16     9    10    1
    17    10    11    2
    18    11    12    1
    19    12    25    1
    20    27    25    1
    21    27    32    1
    22    32    33    1
    23    33    34    1
    24    27    28    1
    25    28    29    1
    26    28    30    1
    27    28    31    1
    28    12    13    2
    29    17    18   ar
    30    18    19   ar
    31    19    15   ar
    32     6     1   ar
    33    13     8    1
    34    13     4    1
    35    34    32    1
    36    21    23    1
    37    21    24    1
    38    25    26    1
