@<TRIPOS>MOLECULE
*****
 39 42 0 0 0
SMALL
GASTEIGER

@<TRIPOS>ATOM
      1 C         140.8452  139.7056  162.8718 C.3     1  UNL1        0.1325
      2 C         141.1561  140.5853  161.6973 C.ar    1  UNL1        0.1400
      3 O         142.4296  140.3891  160.9295 O.2     1  UNL1       -0.4562
      4 C         142.7405  141.2689  159.7550 C.ar    1  UNL1        0.1487
      5 C         144.0141  141.0726  158.9872 C.ar    1  UNL1        0.0490
      6 C         144.3249  141.9524  157.8128 C.ar    1  UNL1        0.0607
      7 CL        145.5985  141.7562  157.0450 Cl      1  UNL1       -0.0821
      8 C         143.3622  143.0284  157.4062 C.ar    1  UNL1        0.0117
      9 C         142.0887  143.2247  158.1739 C.ar    1  UNL1        0.0071
     10 C         141.7778  142.3449  159.3484 C.ar    1  UNL1        0.0733
     11 C         140.5042  142.5411  160.1162 C.ar    1  UNL1        0.1975
     12 O         139.5415  143.6172  159.7095 O.2     1  UNL1       -0.2867
     13 C         140.1934  141.6614  161.2906 C.ar    1  UNL1        0.0531
     14 C         138.9198  141.8576  162.0585 C.3     1  UNL1        0.0587
     15 C         138.8463  142.8988  163.1357 C.ar    1  UNL1       -0.0176
     16 C         140.0241  143.7896  163.3994 C.ar    1  UNL1       -0.0039
     17 C         139.9507  144.8308  164.4767 C.ar    1  UNL1       -0.0003
     18 C         138.6995  144.9812  165.2903 C.ar    1  UNL1       -0.0000
     19 C         137.5218  144.0904  165.0267 C.ar    1  UNL1       -0.0003
     20 C         137.5952  143.0492  163.9494 C.ar    1  UNL1       -0.0039
     21 C         139.7914  140.2437  165.1848 C.2     1  UNL1        0.2493
     22 O         138.4732  139.7093  164.7086 O.2     1  UNL1       -0.2699
     23 N         140.9774  140.2419  164.2664 N.am    1  UNL1       -0.2708
     24 C         140.3203  142.3890  170.7632 C.3     1  UNL1        0.0310
     25 C         140.1880  141.8527  169.3686 C.ar    1  UNL1       -0.0218
     26 C         139.7271  140.4424  169.1479 C.ar    1  UNL1       -0.0041
     27 C         139.5949  139.9061  167.7533 C.ar    1  UNL1        0.0042
     28 C         139.9236  140.7800  166.5794 C.ar    1  UNL1        0.0536
     29 C         140.3845  142.1904  166.8000 C.ar    1  UNL1        0.0042
     30 C         140.5168  142.7267  168.1946 C.ar    1  UNL1       -0.0041
     31 C         142.2955  140.7763  164.7426 C.3     1  UNL1        0.0955
     32 C         143.4471  139.8416  164.9666 C.3     1  UNL1        0.0383
     33 C         144.5871  139.8090  163.9924 C.3     1  UNL1        0.0669
     34 N         144.4565  139.0411  162.7105 N.3     1  UNL1       -0.3211
     35 H         144.3800  138.0452  162.9170 H       1  UNL1        0.1189
     36 H         145.2790  139.2058  162.1302 H       1  UNL1        0.1189
     37 C         140.4021  138.2895  162.6517 C.3     1  UNL1        0.0256
     38 C         141.0587  137.1722  163.4069 C.3     1  UNL1        0.0022
     39 C         139.3023  137.9908  161.6764 C.3     1  UNL1        0.0022
@<TRIPOS>BOND
     1    24    25    1
     2    25    26   ar
     3    26    27   ar
     4    27    28   ar
     5    28    21    1
     6    21    22    2
     7    21    23   am
     8    23    31    1
     9    31    32    1
    10    32    33    1
    11    33    34    1
    12    23     1    1
    13     1     2    1
    14     2     3   ar
    15     3     4   ar
    16     4     5   ar
    17     5     6   ar
    18     6     7    1
    19     6     8   ar
    20     8     9   ar
    21     9    10   ar
    22    10    11   ar
    23    11    12    2
    24    11    13   ar
    25    13    14    1
    26    14    15    1
    27    15    16   ar
    28    16    17   ar
    29    17    18   ar
    30    18    19   ar
    31    19    20   ar
    32     1    37    1
    33    37    38    1
    34    37    39    1
    35    28    29   ar
    36    29    30   ar
    37    30    25   ar
    38    13     2   ar
    39    20    15   ar
    40    10     4   ar
    41    34    35    1
    42    34    36    1
@<TRIPOS>MOLECULE
*****
 39 42 0 0 0
SMALL
GASTEIGER

@<TRIPOS>ATOM
      1 C         141.9540  143.0729  162.9922 C.3     1  UNL1        0.1325
      2 C         141.5055  142.6071  161.6387 C.ar    1  UNL1        0.1400
      3 O         140.9008  143.5820  160.6724 O.2     1  UNL1       -0.4562
      4 C         140.4523  143.1162  159.3189 C.ar    1  UNL1        0.1487
      5 C         139.8476  144.0911  158.3526 C.ar    1  UNL1        0.0490
      6 C         139.3991  143.6253  156.9991 C.ar    1  UNL1        0.0607
      7 CL        138.7943  144.6003  156.0328 Cl      1  UNL1       -0.0821
      8 C         139.5553  142.1846  156.6120 C.ar    1  UNL1        0.0117
      9 C         140.1600  141.2097  157.5783 C.ar    1  UNL1        0.0071
     10 C         140.6085  141.6755  158.9318 C.ar    1  UNL1        0.0733
     11 C         141.2133  140.7005  159.8982 C.ar    1  UNL1        0.1975
     12 O         141.3695  139.2598  159.5110 O.2     1  UNL1       -0.2867
     13 C         141.6617  141.1663  161.2516 C.ar    1  UNL1        0.0531
     14 C         142.2665  140.1914  162.2180 C.3     1  UNL1        0.0587
     15 C         141.3840  139.2583  162.9930 C.ar    1  UNL1       -0.0176
     16 C         141.9897  138.1376  163.7850 C.ar    1  UNL1       -0.0039
     17 C         141.1073  137.2045  164.5600 C.ar    1  UNL1       -0.0003
     18 C         139.6191  137.3922  164.5431 C.ar    1  UNL1       -0.0000
     19 C         139.0135  138.5129  163.7511 C.ar    1  UNL1       -0.0003
     20 C         139.8959  139.4459  162.9761 C.ar    1  UNL1       -0.0039
     21 C         141.8633  141.9621  165.3392 C.2     1  UNL1        0.2493
     22 O         143.3236  141.6340  165.2404 O.2     1  UNL1       -0.2699
     23 N         141.1784  142.6815  164.2151 N.am    1  UNL1       -0.2708
     24 C         138.7610  140.3966  170.2305 C.3     1  UNL1        0.0310
     25 C         139.5366  140.7880  169.0077 C.ar    1  UNL1       -0.0218
     26 C         139.5735  139.8743  167.8187 C.ar    1  UNL1       -0.0041
     27 C         140.3491  140.2657  166.5959 C.ar    1  UNL1        0.0042
     28 C         141.0877  141.5707  166.5620 C.ar    1  UNL1        0.0536
     29 C         141.0508  142.4845  167.7510 C.ar    1  UNL1        0.0042
     30 C         140.2752  142.0931  168.9739 C.ar    1  UNL1       -0.0041
     31 C         139.7181  143.0095  164.3139 C.3     1  UNL1        0.0955
     32 C         139.2482  144.4156  164.0857 C.3     1  UNL1        0.0383
     33 C         138.4094  144.7405  162.8853 C.3     1  UNL1        0.0669
     34 N         137.9111  143.6386  161.9980 N.3     1  UNL1       -0.3211
     35 H         138.7022  143.1893  161.5369 H       1  UNL1        0.1189
     36 H         137.2828  144.0265  161.2943 H       1  UNL1        0.1189
     37 C         143.1780  143.9300  163.1229 C.3     1  UNL1        0.0256
     38 C         144.4509  143.5289  162.4382 C.3     1  UNL1        0.0022
     39 C         143.1292  145.1881  163.9382 C.3     1  UNL1        0.0022
@<TRIPOS>BOND
     1    24    25    1
     2    25    26   ar
     3    26    27   ar
     4    27    28   ar
     5    28    21    1
     6    21    22    2
     7    21    23   am
     8    23    31    1
     9    31    32    1
    10    32    33    1
    11    33    34    1
    12    23     1    1
    13     1     2    1
    14     2     3   ar
    15     3     4   ar
    16     4     5   ar
    17     5     6   ar
    18     6     7    1
    19     6     8   ar
    20     8     9   ar
    21     9    10   ar
    22    10    11   ar
    23    11    12    2
    24    11    13   ar
    25    13    14    1
    26    14    15    1
    27    15    16   ar
    28    16    17   ar
    29    17    18   ar
    30    18    19   ar
    31    19    20   ar
    32     1    37    1
    33    37    38    1
    34    37    39    1
    35    28    29   ar
    36    29    30   ar
    37    30    25   ar
    38    13     2   ar
    39    20    15   ar
    40    10     4   ar
    41    34    35    1
    42    34    36    1
@<TRIPOS>MOLECULE
*****
 39 42 0 0 0
SMALL
GASTEIGER

@<TRIPOS>ATOM
      1 C         142.7432  141.1716  162.8350 C.3     1  UNL1        0.1325
      2 C         141.6957  141.2388  161.7634 C.ar    1  UNL1        0.1400
      3 O         141.6694  142.3981  160.8120 O.2     1  UNL1       -0.4562
      4 C         140.6218  142.4654  159.7404 C.ar    1  UNL1        0.1487
      5 C         140.5955  143.6247  158.7890 C.ar    1  UNL1        0.0490
      6 C         139.5480  143.6919  157.7175 C.ar    1  UNL1        0.0607
      7 CL        139.5216  144.8512  156.7660 Cl      1  UNL1       -0.0821
      8 C         138.5268  142.5997  157.5974 C.ar    1  UNL1        0.0117
      9 C         138.5531  141.4404  158.5488 C.ar    1  UNL1        0.0071
     10 C         139.6006  141.3732  159.6203 C.ar    1  UNL1        0.0733
     11 C         139.6270  140.2139  160.5718 C.ar    1  UNL1        0.1975
     12 O         138.6058  139.1217  160.4517 O.2     1  UNL1       -0.2867
     13 C         140.6745  140.1467  161.6433 C.ar    1  UNL1        0.0531
     14 C         140.7008  138.9873  162.5948 C.3     1  UNL1        0.0587
     15 C         139.7874  138.9726  163.7846 C.ar    1  UNL1       -0.0176
     16 C         139.5782  137.7019  164.5538 C.ar    1  UNL1       -0.0039
     17 C         138.6648  137.6872  165.7435 C.ar    1  UNL1       -0.0003
     18 C         137.9606  138.9432  166.1641 C.ar    1  UNL1       -0.0000
     19 C         138.1699  140.2138  165.3949 C.ar    1  UNL1       -0.0003
     20 C         139.0833  140.2285  164.2051 C.ar    1  UNL1       -0.0039
     21 C         142.6626  140.5479  165.3558 C.2     1  UNL1        0.2493
     22 O         143.2836  139.2180  165.0467 O.2     1  UNL1       -0.2699
     23 N         142.3924  141.5247  164.2500 N.am    1  UNL1       -0.2708
     24 C         141.2591  141.9604  171.0158 C.3     1  UNL1        0.0310
     25 C         141.6100  141.6073  169.6008 C.ar    1  UNL1       -0.0218
     26 C         140.8303  140.5504  168.8762 C.ar    1  UNL1       -0.0041
     27 C         141.1812  140.1973  167.4612 C.ar    1  UNL1        0.0042
     28 C         142.3117  140.9010  166.7708 C.ar    1  UNL1        0.0536
     29 C         143.0915  141.9579  167.4955 C.ar    1  UNL1        0.0042
     30 C         142.7406  142.3110  168.9105 C.ar    1  UNL1       -0.0041
     31 C         141.7713  142.8546  164.5592 C.3     1  UNL1        0.0955
     32 C         142.5353  144.1184  164.2962 C.3     1  UNL1        0.0383
     33 C         142.1143  145.0315  163.1831 C.3     1  UNL1        0.0669
     34 N         142.7360  144.8946  161.8249 N.3     1  UNL1       -0.3211
     35 H         143.7257  145.1355  161.8782 H       1  UNL1        0.1189
     36 H         142.2678  145.5228  161.1718 H       1  UNL1        0.1189
     37 C         144.1415  140.7513  162.4916 C.3     1  UNL1        0.0256
     38 C         145.3081  141.5611  162.9745 C.3     1  UNL1        0.0022
     39 C         144.3733  139.5210  161.6652 C.3     1  UNL1        0.0022
@<TRIPOS>BOND
     1    24    25    1
     2    25    26   ar
     3    26    27   ar
     4    27    28   ar
     5    28    21    1
     6    21    22    2
     7    21    23   am
     8    23    31    1
     9    31    32    1
    10    32    33    1
    11    33    34    1
    12    23     1    1
    13     1     2    1
    14     2     3   ar
    15     3     4   ar
    16     4     5   ar
    17     5     6   ar
    18     6     7    1
    19     6     8   ar
    20     8     9   ar
    21     9    10   ar
    22    10    11   ar
    23    11    12    2
    24    11    13   ar
    25    13    14    1
    26    14    15    1
    27    15    16   ar
    28    16    17   ar
    29    17    18   ar
    30    18    19   ar
    31    19    20   ar
    32     1    37    1
    33    37    38    1
    34    37    39    1
    35    28    29   ar
    36    29    30   ar
    37    30    25   ar
    38    13     2   ar
    39    20    15   ar
    40    10     4   ar
    41    34    35    1
    42    34    36    1
@<TRIPOS>MOLECULE
*****
 39 42 0 0 0
SMALL
GASTEIGER

@<TRIPOS>ATOM
      1 C         139.7180  142.1571  162.2235 C.3     1  UNL1        0.1325
      2 C         140.4486  142.4927  160.9571 C.ar    1  UNL1        0.1400
      3 O         139.9764  143.6271  160.0969 O.2     1  UNL1       -0.4562
      4 C         140.7070  143.9628  158.8306 C.ar    1  UNL1        0.1487
      5 C         140.2347  145.0972  157.9704 C.ar    1  UNL1        0.0490
      6 C         140.9654  145.4328  156.7041 C.ar    1  UNL1        0.0607
      7 CL        140.4931  146.5672  155.8438 Cl      1  UNL1       -0.0821
      8 C         142.1683  144.6339  156.2980 C.ar    1  UNL1        0.0117
      9 C         142.6405  143.4995  157.1582 C.ar    1  UNL1        0.0071
     10 C         141.9099  143.1639  158.4245 C.ar    1  UNL1        0.0733
     11 C         142.3821  142.0294  159.2848 C.ar    1  UNL1        0.1975
     12 O         143.5850  141.2306  158.8787 O.2     1  UNL1       -0.2867
     13 C         141.6515  141.6939  160.5511 C.ar    1  UNL1        0.0531
     14 C         142.1237  140.5594  161.4113 C.3     1  UNL1        0.0587
     15 C         143.3081  140.7445  162.3130 C.ar    1  UNL1       -0.0176
     16 C         143.8124  139.5950  163.1343 C.ar    1  UNL1       -0.0039
     17 C         144.9968  139.7801  164.0359 C.ar    1  UNL1       -0.0003
     18 C         145.6770  141.1146  164.1162 C.ar    1  UNL1       -0.0000
     19 C         145.1727  142.2640  163.2949 C.ar    1  UNL1       -0.0003
     20 C         143.9883  142.0790  162.3933 C.ar    1  UNL1       -0.0039
     21 C         140.5409  141.4212  164.5754 C.2     1  UNL1        0.2493
     22 O         140.1491  140.0059  164.2696 O.2     1  UNL1       -0.2699
     23 N         140.3253  142.4968  163.5523 N.am    1  UNL1       -0.2708
     24 C         142.9702  142.7800  169.8906 C.3     1  UNL1        0.0310
     25 C         142.3629  142.4403  168.5618 C.ar    1  UNL1       -0.0218
     26 C         140.8715  142.3872  168.4104 C.ar    1  UNL1       -0.0041
     27 C         140.2642  142.0475  167.0816 C.ar    1  UNL1        0.0042
     28 C         141.1482  141.7609  165.9042 C.ar    1  UNL1        0.0536
     29 C         142.6397  141.8139  166.0556 C.ar    1  UNL1        0.0042
     30 C         143.2470  142.1537  167.3844 C.ar    1  UNL1       -0.0041
     31 C         140.7171  143.9120  163.8581 C.3     1  UNL1        0.0955
     32 C         139.7920  145.0391  163.5060 C.3     1  UNL1        0.0383
     33 C         140.1791  146.0225  162.4415 C.3     1  UNL1        0.0669
     34 N         139.2511  146.2894  161.2937 N.3     1  UNL1       -0.3211
     35 H         139.1634  145.4475  160.7245 H       1  UNL1        0.1189
     36 H         139.6250  147.0479  160.7234 H       1  UNL1        0.1189
     37 C         138.3801  141.4818  162.1610 C.3     1  UNL1        0.0256
     38 C         137.2971  141.8725  163.1225 C.3     1  UNL1        0.0022
     39 C         138.1251  140.4158  161.1370 C.3     1  UNL1        0.0022
@<TRIPOS>BOND
     1    24    25    1
     2    25    26   ar
     3    26    27   ar
     4    27    28   ar
     5    28    21    1
     6    21    22    2
     7    21    23   am
     8    23    31    1
     9    31    32    1
    10    32    33    1
    11    33    34    1
    12    23     1    1
    13     1     2    1
    14     2     3   ar
    15     3     4   ar
    16     4     5   ar
    17     5     6   ar
    18     6     7    1
    19     6     8   ar
    20     8     9   ar
    21     9    10   ar
    22    10    11   ar
    23    11    12    2
    24    11    13   ar
    25    13    14    1
    26    14    15    1
    27    15    16   ar
    28    16    17   ar
    29    17    18   ar
    30    18    19   ar
    31    19    20   ar
    32     1    37    1
    33    37    38    1
    34    37    39    1
    35    28    29   ar
    36    29    30   ar
    37    30    25   ar
    38    13     2   ar
    39    20    15   ar
    40    10     4   ar
    41    34    35    1
    42    34    36    1
@<TRIPOS>MOLECULE
*****
 39 42 0 0 0
SMALL
GASTEIGER

@<TRIPOS>ATOM
      1 C         143.2109  141.4960  162.6697 C.3     1  UNL1        0.1325
      2 C         142.2955  141.2252  161.5126 C.ar    1  UNL1        0.1400
      3 O         142.4548  139.9692  160.7082 O.2     1  UNL1       -0.4562
      4 C         141.5393  139.6985  159.5511 C.ar    1  UNL1        0.1487
      5 C         141.6986  138.4425  158.7467 C.ar    1  UNL1        0.0490
      6 C         140.7832  138.1718  157.5897 C.ar    1  UNL1        0.0607
      7 CL        140.9425  136.9157  156.7853 Cl      1  UNL1       -0.0821
      8 C         139.7085  139.1570  157.2371 C.ar    1  UNL1        0.0117
      9 C         139.5492  140.4130  158.0415 C.ar    1  UNL1        0.0071
     10 C         140.4646  140.6837  159.1985 C.ar    1  UNL1        0.0733
     11 C         140.3054  141.9397  160.0030 C.ar    1  UNL1        0.1975
     12 O         139.2307  142.9250  159.6504 O.2     1  UNL1       -0.2867
     13 C         141.2208  142.2105  161.1600 C.ar    1  UNL1        0.0531
     14 C         141.0615  143.4665  161.9645 C.3     1  UNL1        0.0587
     15 C         139.9693  143.5684  162.9875 C.ar    1  UNL1       -0.0176
     16 C         138.9691  142.4596  163.1299 C.ar    1  UNL1       -0.0039
     17 C         137.8769  142.5615  164.1529 C.ar    1  UNL1       -0.0003
     18 C         137.7848  143.7723  165.0337 C.ar    1  UNL1       -0.0000
     19 C         138.7850  144.8810  164.8913 C.ar    1  UNL1       -0.0003
     20 C         139.8772  144.7791  163.8683 C.ar    1  UNL1       -0.0039
     21 C         142.7113  142.5070  165.0103 C.2     1  UNL1        0.2493
     22 O         143.2103  143.8412  164.5405 O.2     1  UNL1       -0.2699
     23 N         142.7116  141.3343  164.0749 N.am    1  UNL1       -0.2708
     24 C         140.7139  141.8602  170.6310 C.3     1  UNL1        0.0310
     25 C         141.2133  142.0219  169.2258 C.ar    1  UNL1       -0.0218
     26 C         140.2385  142.1143  168.0895 C.ar    1  UNL1       -0.0041
     27 C         140.7379  142.2760  166.6843 C.ar    1  UNL1        0.0042
     28 C         142.2119  142.3453  166.4155 C.ar    1  UNL1        0.0536
     29 C         143.1867  142.2529  167.5518 C.ar    1  UNL1        0.0042
     30 C         142.6874  142.0912  168.9570 C.ar    1  UNL1       -0.0041
     31 C         142.2125  140.0001  164.5446 C.3     1  UNL1        0.0955
     32 C         140.9194  139.4543  164.0156 C.3     1  UNL1        0.0383
     33 C         140.8515  138.0437  163.5103 C.3     1  UNL1        0.0669
     34 N         141.9316  137.5154  162.6135 N.3     1  UNL1       -0.3211
     35 H         141.9110  138.0161  161.7251 H       1  UNL1        0.1189
     36 H         141.7789  136.5208  162.4468 H       1  UNL1        0.1189
     37 C         144.6256  141.9285  162.4215 C.3     1  UNL1        0.0256
     38 C         144.9545  142.7643  161.2203 C.3     1  UNL1        0.0022
     39 C         145.7113  141.5250  163.3746 C.3     1  UNL1        0.0022
@<TRIPOS>BOND
     1    24    25    1
     2    25    26   ar
     3    26    27   ar
     4    27    28   ar
     5    28    21    1
     6    21    22    2
     7    21    23   am
     8    23    31    1
     9    31    32    1
    10    32    33    1
    11    33    34    1
    12    23     1    1
    13     1     2    1
    14     2     3   ar
    15     3     4   ar
    16     4     5   ar
    17     5     6   ar
    18     6     7    1
    19     6     8   ar
    20     8     9   ar
    21     9    10   ar
    22    10    11   ar
    23    11    12    2
    24    11    13   ar
    25    13    14    1
    26    14    15    1
    27    15    16   ar
    28    16    17   ar
    29    17    18   ar
    30    18    19   ar
    31    19    20   ar
    32     1    37    1
    33    37    38    1
    34    37    39    1
    35    28    29   ar
    36    29    30   ar
    37    30    25   ar
    38    13     2   ar
    39    20    15   ar
    40    10     4   ar
    41    34    35    1
    42    34    36    1
@<TRIPOS>MOLECULE
*****
 39 42 0 0 0
SMALL
GASTEIGER

@<TRIPOS>ATOM
      1 C         140.1365  141.4347  161.3921 C.3     1  UNL1        0.1325
      2 C         140.7774  140.6978  160.2535 C.ar    1  UNL1        0.1400
      3 O         139.9531  139.7912  159.3883 O.2     1  UNL1       -0.4562
      4 C         140.5939  139.0542  158.2497 C.ar    1  UNL1        0.1487
      5 C         139.7696  138.1477  157.3845 C.ar    1  UNL1        0.0490
      6 C         140.4104  137.4108  156.2460 C.ar    1  UNL1        0.0607
      7 CL        139.5861  136.5042  155.3807 Cl      1  UNL1       -0.0821
      8 C         141.8755  137.5804  155.9727 C.ar    1  UNL1        0.0117
      9 C         142.6998  138.4869  156.8380 C.ar    1  UNL1        0.0071
     10 C         142.0590  139.2239  157.9765 C.ar    1  UNL1        0.0733
     11 C         142.8833  140.1305  158.8418 C.ar    1  UNL1        0.1975
     12 O         144.3484  140.3001  158.5685 O.2     1  UNL1       -0.2867
     13 C         142.2425  140.8674  159.9803 C.ar    1  UNL1        0.0531
     14 C         143.0668  141.7740  160.8456 C.3     1  UNL1        0.0587
     15 C         143.8589  141.2063  161.9859 C.ar    1  UNL1       -0.0176
     16 C         143.6659  139.7759  162.3945 C.ar    1  UNL1       -0.0039
     17 C         144.4580  139.2083  163.5348 C.ar    1  UNL1       -0.0003
     18 C         145.4432  140.0710  164.2665 C.ar    1  UNL1       -0.0000
     19 C         145.6361  141.5012  163.8579 C.ar    1  UNL1       -0.0003
     20 C         144.8440  142.0689  162.7176 C.ar    1  UNL1       -0.0039
     21 C         140.7985  141.8107  163.8762 C.2     1  UNL1        0.2493
     22 O         141.1874  143.2241  163.5587 O.2     1  UNL1       -0.2699
     23 N         140.2731  140.9159  162.7929 N.am    1  UNL1       -0.2708
     24 C         141.3449  139.7354  169.4793 C.3     1  UNL1        0.0310
     25 C         141.2083  140.2542  168.0785 C.ar    1  UNL1       -0.0218
     26 C         139.8655  140.6818  167.5647 C.ar    1  UNL1       -0.0041
     27 C         139.7289  141.2006  166.1639 C.ar    1  UNL1        0.0042
     28 C         140.9351  141.2918  165.2770 C.ar    1  UNL1        0.0536
     29 C         142.2780  140.8642  165.7908 C.ar    1  UNL1        0.0042
     30 C         142.4146  140.3454  167.1915 C.ar    1  UNL1       -0.0041
     31 C         139.8843  139.5024  163.1104 C.3     1  UNL1        0.0955
     32 C         138.4373  139.1074  163.1229 C.3     1  UNL1        0.0383
     33 C         137.7995  138.5567  161.8820 C.3     1  UNL1        0.0669
     34 N         137.1355  139.4821  160.9060 N.3     1  UNL1       -0.3211
     35 H         136.3184  139.9081  161.3433 H       1  UNL1        0.1189
     36 H         136.8446  138.9557  160.0822 H       1  UNL1        0.1189
     37 C         139.3592  142.6905  161.1299 C.3     1  UNL1        0.0256
     38 C         138.0189  142.8909  161.7729 C.3     1  UNL1        0.0022
     39 C         139.9221  143.7458  160.2247 C.3     1  UNL1        0.0022
@<TRIPOS>BOND
     1    24    25    1
     2    25    26   ar
     3    26    27   ar
     4    27    28   ar
     5    28    21    1
     6    21    22    2
     7    21    23   am
     8    23    31    1
     9    31    32    1
    10    32    33    1
    11    33    34    1
    12    23     1    1
    13     1     2    1
    14     2     3   ar
    15     3     4   ar
    16     4     5   ar
    17     5     6   ar
    18     6     7    1
    19     6     8   ar
    20     8     9   ar
    21     9    10   ar
    22    10    11   ar
    23    11    12    2
    24    11    13   ar
    25    13    14    1
    26    14    15    1
    27    15    16   ar
    28    16    17   ar
    29    17    18   ar
    30    18    19   ar
    31    19    20   ar
    32     1    37    1
    33    37    38    1
    34    37    39    1
    35    28    29   ar
    36    29    30   ar
    37    30    25   ar
    38    13     2   ar
    39    20    15   ar
    40    10     4   ar
    41    34    35    1
    42    34    36    1
@<TRIPOS>MOLECULE
*****
 39 42 0 0 0
SMALL
GASTEIGER

@<TRIPOS>ATOM
      1 C         140.2603  139.8933  162.2823 C.3     1  UNL1        0.1325
      2 C         140.8905  140.1454  160.9446 C.ar    1  UNL1        0.1400
      3 O         141.3641  138.9928  160.1095 O.2     1  UNL1       -0.4562
      4 C         141.9943  139.2449  158.7718 C.ar    1  UNL1        0.1487
      5 C         142.4679  138.0924  157.9367 C.ar    1  UNL1        0.0490
      6 C         143.0980  138.3445  156.5991 C.ar    1  UNL1        0.0607
      7 CL        143.5716  137.1919  155.7639 Cl      1  UNL1       -0.0821
      8 C         143.2546  139.7491  156.0965 C.ar    1  UNL1        0.0117
      9 C         142.7810  140.9016  156.9316 C.ar    1  UNL1        0.0071
     10 C         142.1509  140.6495  158.2692 C.ar    1  UNL1        0.0733
     11 C         141.6773  141.8021  159.1044 C.ar    1  UNL1        0.1975
     12 O         141.8338  143.2067  158.6018 O.2     1  UNL1       -0.2867
     13 C         141.0471  141.5500  160.4420 C.ar    1  UNL1        0.0531
     14 C         140.5735  142.7025  161.2772 C.3     1  UNL1        0.0587
     15 C         141.5582  143.5059  162.0739 C.ar    1  UNL1       -0.0176
     16 C         143.0223  143.1886  161.9964 C.ar    1  UNL1       -0.0039
     17 C         144.0070  143.9920  162.7932 C.ar    1  UNL1       -0.0003
     18 C         143.5277  145.1127  163.6675 C.ar    1  UNL1       -0.0000
     19 C         142.0637  145.4300  163.7449 C.ar    1  UNL1       -0.0003
     20 C         141.0790  144.6266  162.9482 C.ar    1  UNL1       -0.0039
     21 C         140.5348  141.1467  164.5414 C.2     1  UNL1        0.2493
     22 O         139.2532  141.8837  164.2882 O.2     1  UNL1       -0.2699
     23 N         141.0384  140.1514  163.5385 N.am    1  UNL1       -0.2708
     24 C         143.6471  142.1792  169.5661 C.3     1  UNL1        0.0310
     25 C         142.8690  141.9211  168.3100 C.ar    1  UNL1       -0.0218
     26 C         141.6687  141.0222  168.3426 C.ar    1  UNL1       -0.0041
     27 C         140.8906  140.7641  167.0864 C.ar    1  UNL1        0.0042
     28 C         141.3129  141.4048  165.7976 C.ar    1  UNL1        0.0536
     29 C         142.5133  142.3038  165.7649 C.ar    1  UNL1        0.0042
     30 C         143.2913  142.5619  167.0211 C.ar    1  UNL1       -0.0041
     31 C         142.3200  139.4144  163.7917 C.3     1  UNL1        0.0955
     32 C         143.5250  139.6915  162.9424 C.3     1  UNL1        0.0383
     33 C         144.2105  138.5675  162.2237 C.3     1  UNL1        0.0669
     34 N         143.3980  137.4957  161.5594 N.3     1  UNL1       -0.3211
     35 H         142.8939  136.9628  162.2681 H       1  UNL1        0.1189
     36 H         144.0167  136.8720  161.0412 H       1  UNL1        0.1189
     37 C         138.8521  139.3831  162.3638 C.3     1  UNL1        0.0256
     38 C         138.5595  138.1014  163.0858 C.3     1  UNL1        0.0022
     39 C         137.7366  140.1547  161.7232 C.3     1  UNL1        0.0022
@<TRIPOS>BOND
     1    24    25    1
     2    25    26   ar
     3    26    27   ar
     4    27    28   ar
     5    28    21    1
     6    21    22    2
     7    21    23   am
     8    23    31    1
     9    31    32    1
    10    32    33    1
    11    33    34    1
    12    23     1    1
    13     1     2    1
    14     2     3   ar
    15     3     4   ar
    16     4     5   ar
    17     5     6   ar
    18     6     7    1
    19     6     8   ar
    20     8     9   ar
    21     9    10   ar
    22    10    11   ar
    23    11    12    2
    24    11    13   ar
    25    13    14    1
    26    14    15    1
    27    15    16   ar
    28    16    17   ar
    29    17    18   ar
    30    18    19   ar
    31    19    20   ar
    32     1    37    1
    33    37    38    1
    34    37    39    1
    35    28    29   ar
    36    29    30   ar
    37    30    25   ar
    38    13     2   ar
    39    20    15   ar
    40    10     4   ar
    41    34    35    1
    42    34    36    1
@<TRIPOS>MOLECULE
*****
 39 42 0 0 0
SMALL
GASTEIGER

@<TRIPOS>ATOM
      1 C         142.3108  141.6424  161.1378 C.3     1  UNL1        0.1325
      2 C         141.7803  142.7009  160.2167 C.ar    1  UNL1        0.1400
      3 O         141.7182  142.4472  158.7396 O.2     1  UNL1       -0.4562
      4 C         141.1877  143.5056  157.8185 C.ar    1  UNL1        0.1487
      5 C         141.1256  143.2519  156.3414 C.ar    1  UNL1        0.0490
      6 C         140.5951  144.3103  155.4204 C.ar    1  UNL1        0.0607
      7 CL        140.5329  144.0566  153.9433 Cl      1  UNL1       -0.0821
      8 C         140.1269  145.6224  155.9764 C.ar    1  UNL1        0.0117
      9 C         140.1891  145.8761  157.4534 C.ar    1  UNL1        0.0071
     10 C         140.7195  144.8177  158.3745 C.ar    1  UNL1        0.0733
     11 C         140.7817  145.0714  159.8516 C.ar    1  UNL1        0.1975
     12 O         140.3134  146.3835  160.4076 O.2     1  UNL1       -0.2867
     13 C         141.3121  144.0130  160.7727 C.ar    1  UNL1        0.0531
     14 C         141.3743  144.2666  162.2498 C.3     1  UNL1        0.0587
     15 C         140.1262  144.1856  163.0779 C.ar    1  UNL1       -0.0176
     16 C         140.1366  144.6655  164.4991 C.ar    1  UNL1       -0.0039
     17 C         138.8885  144.5845  165.3271 C.ar    1  UNL1       -0.0003
     18 C         137.6300  144.0236  164.7340 C.ar    1  UNL1       -0.0000
     19 C         137.6197  143.5438  163.3129 C.ar    1  UNL1       -0.0003
     20 C         138.8678  143.6248  162.4849 C.ar    1  UNL1       -0.0039
     21 C         141.4027  140.8272  163.4315 C.2     1  UNL1        0.2493
     22 O         142.3931  141.7062  164.1361 O.2     1  UNL1       -0.2699
     23 N         141.3615  140.7953  161.9323 N.am    1  UNL1       -0.2708
     24 C         137.6057  137.4386  166.6096 C.3     1  UNL1        0.0310
     25 C         138.5549  138.2857  165.8150 C.ar    1  UNL1       -0.0218
     26 C         138.3151  139.7607  165.6852 C.ar    1  UNL1       -0.0041
     27 C         139.2643  140.6078  164.8907 C.ar    1  UNL1        0.0042
     28 C         140.4534  139.9800  164.2260 C.ar    1  UNL1        0.0536
     29 C         140.6933  138.5050  164.3558 C.ar    1  UNL1        0.0042
     30 C         139.7441  137.6578  165.1503 C.ar    1  UNL1       -0.0041
     31 C         140.3711  139.9163  161.2278 C.3     1  UNL1        0.0955
     32 C         139.0643  140.4844  160.7593 C.3     1  UNL1        0.0383
     33 C         137.7883  140.0947  161.4447 C.3     1  UNL1        0.0669
     34 N         136.6006  139.6694  160.6332 N.3     1  UNL1       -0.3211
     35 H         136.2643  140.4597  160.0829 H       1  UNL1        0.1189
     36 H         135.8596  139.3495  161.2569 H       1  UNL1        0.1189
     37 C         143.7904  141.4312  161.2644 C.3     1  UNL1        0.0256
     38 C         144.7173  142.6103  161.2836 C.3     1  UNL1        0.0022
     39 C         144.3430  140.0409  161.3718 C.3     1  UNL1        0.0022
@<TRIPOS>BOND
     1    24    25    1
     2    25    26   ar
     3    26    27   ar
     4    27    28   ar
     5    28    21    1
     6    21    22    2
     7    21    23   am
     8    23    31    1
     9    31    32    1
    10    32    33    1
    11    33    34    1
    12    23     1    1
    13     1     2    1
    14     2     3   ar
    15     3     4   ar
    16     4     5   ar
    17     5     6   ar
    18     6     7    1
    19     6     8   ar
    20     8     9   ar
    21     9    10   ar
    22    10    11   ar
    23    11    12    2
    24    11    13   ar
    25    13    14    1
    26    14    15    1
    27    15    16   ar
    28    16    17   ar
    29    17    18   ar
    30    18    19   ar
    31    19    20   ar
    32     1    37    1
    33    37    38    1
    34    37    39    1
    35    28    29   ar
    36    29    30   ar
    37    30    25   ar
    38    13     2   ar
    39    20    15   ar
    40    10     4   ar
    41    34    35    1
    42    34    36    1
@<TRIPOS>MOLECULE
*****
 39 42 0 0 0
SMALL
GASTEIGER

@<TRIPOS>ATOM
      1 C         139.8204  140.0155  163.1327 C.3     1  UNL1        0.1325
      2 C         139.7934  140.9111  161.9296 C.ar    1  UNL1        0.1400
      3 O         139.0009  140.5167  160.7187 O.2     1  UNL1       -0.4562
      4 C         138.9739  141.4122  159.5156 C.ar    1  UNL1        0.1487
      5 C         138.1815  141.0178  158.3046 C.ar    1  UNL1        0.0490
      6 C         138.1545  141.9133  157.1017 C.ar    1  UNL1        0.0607
      7 CL        137.3621  141.5190  155.8906 Cl      1  UNL1       -0.0821
      8 C         138.9200  143.2033  157.1096 C.ar    1  UNL1        0.0117
      9 C         139.7125  143.5977  158.3205 C.ar    1  UNL1        0.0071
     10 C         139.7394  142.7022  159.5235 C.ar    1  UNL1        0.0733
     11 C         140.5319  143.0965  160.7345 C.ar    1  UNL1        0.1975
     12 O         141.2974  144.3865  160.7425 O.2     1  UNL1       -0.2867
     13 C         140.5589  142.2010  161.9375 C.ar    1  UNL1        0.0531
     14 C         141.3514  142.5954  163.1486 C.3     1  UNL1        0.0587
     15 C         142.8105  142.2578  163.2326 C.ar    1  UNL1       -0.0176
     16 C         143.6742  142.9163  164.2673 C.ar    1  UNL1       -0.0039
     17 C         145.1333  142.5788  164.3514 C.ar    1  UNL1       -0.0003
     18 C         145.7287  141.5827  163.4008 C.ar    1  UNL1       -0.0000
     19 C         144.8649  140.9243  162.3662 C.ar    1  UNL1       -0.0003
     20 C         143.4058  141.2619  162.2821 C.ar    1  UNL1       -0.0039
     21 C         140.6260  140.4710  165.5604 C.2     1  UNL1        0.2493
     22 O         141.9256  139.7858  165.2577 O.2     1  UNL1       -0.2699
     23 N         139.5734  140.5858  164.4979 N.am    1  UNL1       -0.2708
     24 C         139.6380  142.7523  171.0211 C.3     1  UNL1        0.0310
     25 C         139.8850  142.1819  169.6559 C.ar    1  UNL1       -0.0218
     26 C         139.5296  140.7542  169.3640 C.ar    1  UNL1       -0.0041
     27 C         139.7766  140.1839  167.9988 C.ar    1  UNL1        0.0042
     28 C         140.3790  141.0413  166.9255 C.ar    1  UNL1        0.0536
     29 C         140.7344  142.4691  167.2174 C.ar    1  UNL1        0.0042
     30 C         140.4874  143.0394  168.5826 C.ar    1  UNL1       -0.0041
     31 C         138.2738  141.2710  164.8006 C.3     1  UNL1        0.0955
     32 C         138.1134  142.7348  164.5152 C.3     1  UNL1        0.0383
     33 C         137.3327  143.1840  163.3158 C.3     1  UNL1        0.0669
     34 N         137.7016  144.4577  162.6147 N.3     1  UNL1       -0.3211
     35 H         137.5313  145.2490  163.2353 H       1  UNL1        0.1189
     36 H         137.1354  144.5583  161.7722 H       1  UNL1        0.1189
     37 C         140.0944  138.5497  162.9705 C.3     1  UNL1        0.0256
     38 C         141.2744  138.0919  162.1656 C.3     1  UNL1        0.0022
     39 C         139.1884  137.5418  163.6133 C.3     1  UNL1        0.0022
@<TRIPOS>BOND
     1    24    25    1
     2    25    26   ar
     3    26    27   ar
     4    27    28   ar
     5    28    21    1
     6    21    22    2
     7    21    23   am
     8    23    31    1
     9    31    32    1
    10    32    33    1
    11    33    34    1
    12    23     1    1
    13     1     2    1
    14     2     3   ar
    15     3     4   ar
    16     4     5   ar
    17     5     6   ar
    18     6     7    1
    19     6     8   ar
    20     8     9   ar
    21     9    10   ar
    22    10    11   ar
    23    11    12    2
    24    11    13   ar
    25    13    14    1
    26    14    15    1
    27    15    16   ar
    28    16    17   ar
    29    17    18   ar
    30    18    19   ar
    31    19    20   ar
    32     1    37    1
    33    37    38    1
    34    37    39    1
    35    28    29   ar
    36    29    30   ar
    37    30    25   ar
    38    13     2   ar
    39    20    15   ar
    40    10     4   ar
    41    34    35    1
    42    34    36    1
