@<TRIPOS>MOLECULE
*****
 26 28 0 0 0
SMALL
GASTEIGER

@<TRIPOS>ATOM
      1 C         138.6084  139.2266  166.2025 C.2     1  UNL1        0.2493
      2 O         137.4276  138.7024  166.9647 O.2     1  UNL1       -0.2699
      3 N         139.6848  139.9879  166.9176 N.am    1  UNL1       -0.2694
      4 N         137.8483  140.2213  158.4529 N.pl3   1  UNL1       -0.3375
      5 C         138.1328  139.7899  159.8610 C.ar    1  UNL1        0.1567
      6 N         138.8673  138.5480  160.2714 N.ar    1  UNL1       -0.2245
      7 C         138.9211  138.5152  161.7701 C.ar    1  UNL1        0.0892
      8 C         139.5181  137.5308  162.7316 C.ar    1  UNL1        0.0198
      9 C         139.4138  137.7680  164.2090 C.ar    1  UNL1        0.0061
     10 C         138.7126  138.9895  164.7249 C.ar    1  UNL1        0.0542
     11 C         138.1157  139.9739  163.7634 C.ar    1  UNL1        0.0126
     12 C         138.2199  139.7367  162.2860 C.ar    1  UNL1        0.0498
     13 S         137.7327  140.5245  161.1061 S.2     1  UNL1       -0.0520
     14 H         138.1535  139.6685  157.6975 H       1  UNL1        0.1442
     15 H         137.3564  141.0572  158.2840 H       1  UNL1        0.1442
     16 C         140.8656  140.5122  166.1554 C.3     1  UNL1        0.1257
     17 C         140.8248  141.8901  165.5639 C.3     1  UNL1        0.1586
     18 O         139.5615  142.6964  165.6275 O.3     1  UNL1       -0.3802
     19 H         138.8773  142.2684  165.0894 H       1  UNL1        0.2105
     20 C         139.5806  140.2251  168.3952 C.3     1  UNL1        0.1205
     21 C         140.5829  141.1008  169.0868 C.ar    1  UNL1       -0.0023
     22 C         140.3014  142.5627  169.2704 C.ar    1  UNL1       -0.0026
     23 C         141.3037  143.4384  169.9620 C.ar    1  UNL1       -0.0003
     24 C         142.5877  142.8523  170.4700 C.ar    1  UNL1       -0.0000
     25 C         142.8692  141.3905  170.2864 C.ar    1  UNL1       -0.0003
     26 C         141.8668  140.5147  169.5948 C.ar    1  UNL1       -0.0026
@<TRIPOS>BOND
     1     4     5    1
     2     5     6   ar
     3     6     7   ar
     4     7     8   ar
     5     8     9   ar
     6     9    10   ar
     7    10     1    1
     8     1     2    2
     9     1     3   am
    10     3    16    1
    11    16    17    1
    12    17    18    1
    13     3    20    1
    14    20    21    1
    15    21    22   ar
    16    22    23   ar
    17    23    24   ar
    18    24    25   ar
    19    25    26   ar
    20    10    11   ar
    21    11    12   ar
    22    12    13   ar
    23    13     5   ar
    24    12     7   ar
    25    26    21   ar
    26     4    14    1
    27     4    15    1
    28    18    19    1
@<TRIPOS>MOLECULE
*****
 26 28 0 0 0
SMALL
GASTEIGER

@<TRIPOS>ATOM
      1 C         140.8452  139.1698  164.7145 C.2     1  UNL1        0.2493
      2 O         142.1298  138.4126  164.5517 O.2     1  UNL1       -0.2699
      3 N         139.6613  138.8311  163.8580 N.am    1  UNL1       -0.2694
      4 N         139.6315  142.8888  171.5203 N.pl3   1  UNL1       -0.3375
      5 C         139.9289  142.4403  170.1202 C.ar    1  UNL1        0.1567
      6 N         140.3576  143.3213  168.9844 N.ar    1  UNL1       -0.2245
      7 C         140.5434  142.4575  167.7722 C.ar    1  UNL1        0.0892
      8 C         140.9578  142.7765  166.3664 C.ar    1  UNL1        0.0198
      9 C         141.0584  141.6806  165.3472 C.ar    1  UNL1        0.0061
     10 C         140.7446  140.2657  165.7338 C.ar    1  UNL1        0.0542
     11 C         140.3302  139.9467  167.1396 C.ar    1  UNL1        0.0126
     12 C         140.2296  141.0426  168.1588 C.ar    1  UNL1        0.0498
     13 S         139.8498  141.0319  169.6099 S.2     1  UNL1       -0.0520
     14 H         139.7123  143.8402  171.7600 H       1  UNL1        0.1442
     15 H         139.3556  142.2317  172.1995 H       1  UNL1        0.1442
     16 C         138.3767  139.5883  164.0208 C.3     1  UNL1        0.1257
     17 C         137.9736  140.6099  162.9990 C.3     1  UNL1        0.1586
     18 O         136.6500  141.3059  163.1160 O.3     1  UNL1       -0.3802
     19 H         135.9345  140.6626  162.9934 H       1  UNL1        0.2105
     20 C         139.7619  137.7352  162.8387 C.3     1  UNL1        0.1205
     21 C         140.2792  138.0355  161.4632 C.ar    1  UNL1       -0.0023
     22 C         139.3229  138.3884  160.3628 C.ar    1  UNL1       -0.0026
     23 C         139.8402  138.6888  158.9872 C.ar    1  UNL1       -0.0003
     24 C         141.3139  138.6361  158.7120 C.ar    1  UNL1       -0.0000
     25 C         142.2702  138.2831  159.8125 C.ar    1  UNL1       -0.0003
     26 C         141.7528  137.9828  161.1881 C.ar    1  UNL1       -0.0026
@<TRIPOS>BOND
     1     4     5    1
     2     5     6   ar
     3     6     7   ar
     4     7     8   ar
     5     8     9   ar
     6     9    10   ar
     7    10     1    1
     8     1     2    2
     9     1     3   am
    10     3    16    1
    11    16    17    1
    12    17    18    1
    13     3    20    1
    14    20    21    1
    15    21    22   ar
    16    22    23   ar
    17    23    24   ar
    18    24    25   ar
    19    25    26   ar
    20    10    11   ar
    21    11    12   ar
    22    12    13   ar
    23    13     5   ar
    24    12     7   ar
    25    26    21   ar
    26     4    14    1
    27     4    15    1
    28    18    19    1
@<TRIPOS>MOLECULE
*****
 26 28 0 0 0
SMALL
GASTEIGER

@<TRIPOS>ATOM
      1 C         142.9666  138.8026  166.1343 C.2     1  UNL1        0.2493
      2 O         143.9572  137.9668  166.8894 O.2     1  UNL1       -0.2699
      3 N         142.2413  139.9166  166.8291 N.am    1  UNL1       -0.2694
      4 N         143.6131  138.9311  158.3120 N.pl3   1  UNL1       -0.3375
      5 C         143.2674  138.7300  159.7577 C.ar    1  UNL1        0.1567
      6 N         142.1508  137.8798  160.2873 N.ar    1  UNL1       -0.2245
      7 C         142.1710  137.9681  161.7845 C.ar    1  UNL1        0.0892
      8 C         141.3071  137.3416  162.8386 C.ar    1  UNL1        0.0198
      9 C         141.5724  137.6197  164.2885 C.ar    1  UNL1        0.0061
     10 C         142.7014  138.5245  164.6843 C.ar    1  UNL1        0.0542
     11 C         143.5653  139.1510  163.6302 C.ar    1  UNL1        0.0126
     12 C         143.3001  138.8728  162.1803 C.ar    1  UNL1        0.0498
     13 S         143.9777  139.3437  160.9277 S.2     1  UNL1       -0.0520
     14 H         143.0847  138.4828  157.6126 H       1  UNL1        0.1442
     15 H         144.3683  139.5113  158.0625 H       1  UNL1        0.1442
     16 C         141.2508  140.7525  166.0741 C.3     1  UNL1        0.1257
     17 C         141.7056  141.9880  165.3551 C.3     1  UNL1        0.1586
     18 O         142.9873  142.6582  165.7528 O.3     1  UNL1       -0.3802
     19 H         142.9003  143.0155  166.6504 H       1  UNL1        0.2105
     20 C         142.5065  140.1948  168.2791 C.3     1  UNL1        0.1205
     21 C         141.6275  141.1483  169.0328 C.ar    1  UNL1       -0.0023
     22 C         142.0585  142.5719  169.2271 C.ar    1  UNL1       -0.0026
     23 C         141.1795  143.5254  169.9808 C.ar    1  UNL1       -0.0003
     24 C         139.8695  143.0554  170.5403 C.ar    1  UNL1       -0.0000
     25 C         139.4385  141.6318  170.3461 C.ar    1  UNL1       -0.0003
     26 C         140.3176  140.6783  169.5923 C.ar    1  UNL1       -0.0026
@<TRIPOS>BOND
     1     4     5    1
     2     5     6   ar
     3     6     7   ar
     4     7     8   ar
     5     8     9   ar
     6     9    10   ar
     7    10     1    1
     8     1     2    2
     9     1     3   am
    10     3    16    1
    11    16    17    1
    12    17    18    1
    13     3    20    1
    14    20    21    1
    15    21    22   ar
    16    22    23   ar
    17    23    24   ar
    18    24    25   ar
    19    25    26   ar
    20    10    11   ar
    21    11    12   ar
    22    12    13   ar
    23    13     5   ar
    24    12     7   ar
    25    26    21   ar
    26     4    14    1
    27     4    15    1
    28    18    19    1
@<TRIPOS>MOLECULE
*****
 26 28 0 0 0
SMALL
GASTEIGER

@<TRIPOS>ATOM
      1 C         141.3780  142.0564  165.2891 C.2     1  UNL1        0.2493
      2 O         142.4461  142.4742  166.2559 O.2     1  UNL1       -0.2699
      3 N         140.8215  140.6645  165.3417 N.am    1  UNL1       -0.2694
      4 N         140.3961  145.8561  158.4905 N.pl3   1  UNL1       -0.3375
      5 C         140.3840  145.3124  159.8884 C.ar    1  UNL1        0.1567
      6 N         139.5321  145.8071  161.0195 N.ar    1  UNL1       -0.2245
      7 C         139.8432  144.9790  162.2309 C.ar    1  UNL1        0.0892
      8 C         139.3105  145.0114  163.6327 C.ar    1  UNL1        0.0198
      9 C         139.8221  144.0372  164.6521 C.ar    1  UNL1        0.0061
     10 C         140.8664  143.0306  164.2696 C.ar    1  UNL1        0.0542
     11 C         141.3990  142.9982  162.8678 C.ar    1  UNL1        0.0126
     12 C         140.8874  143.9724  161.8484 C.ar    1  UNL1        0.0498
     13 S         141.2216  144.1784  160.4007 S.2     1  UNL1       -0.0520
     14 H         139.8066  146.6067  158.2491 H       1  UNL1        0.1442
     15 H         140.9937  145.4624  157.8143 H       1  UNL1        0.1442
     16 C         139.7534  140.2467  164.3750 C.3     1  UNL1        0.1257
     17 C         138.3138  140.2594  164.7963 C.3     1  UNL1        0.1586
     18 O         137.4015  141.3490  164.3163 O.3     1  UNL1       -0.3802
     19 H         137.6872  142.1976  164.6892 H       1  UNL1        0.2105
     20 C         141.3331  139.6903  166.3612 C.3     1  UNL1        0.1205
     21 C         140.9890  139.8708  167.8100 C.ar    1  UNL1       -0.0023
     22 C         142.0499  139.7115  168.8584 C.ar    1  UNL1       -0.0026
     23 C         141.7058  139.8920  170.3071 C.ar    1  UNL1       -0.0003
     24 C         140.3007  140.2319  170.7076 C.ar    1  UNL1       -0.0000
     25 C         139.2398  140.3913  169.6592 C.ar    1  UNL1       -0.0003
     26 C         139.5840  140.2107  168.2104 C.ar    1  UNL1       -0.0026
@<TRIPOS>BOND
     1     4     5    1
     2     5     6   ar
     3     6     7   ar
     4     7     8   ar
     5     8     9   ar
     6     9    10   ar
     7    10     1    1
     8     1     2    2
     9     1     3   am
    10     3    16    1
    11    16    17    1
    12    17    18    1
    13     3    20    1
    14    20    21    1
    15    21    22   ar
    16    22    23   ar
    17    23    24   ar
    18    24    25   ar
    19    25    26   ar
    20    10    11   ar
    21    11    12   ar
    22    12    13   ar
    23    13     5   ar
    24    12     7   ar
    25    26    21   ar
    26     4    14    1
    27     4    15    1
    28    18    19    1
@<TRIPOS>MOLECULE
*****
 26 28 0 0 0
SMALL
GASTEIGER

@<TRIPOS>ATOM
      1 C         140.8880  143.1782  164.6518 C.2     1  UNL1        0.2493
      2 O         141.8219  144.2126  164.0970 O.2     1  UNL1       -0.2699
      3 N         139.4356  143.2014  164.2780 N.am    1  UNL1       -0.2694
      4 N         143.3869  139.6099  171.1822 N.pl3   1  UNL1       -0.3375
      5 C         142.9576  140.0366  169.8098 C.ar    1  UNL1        0.1567
      6 N         142.9429  139.1742  168.5826 N.ar    1  UNL1       -0.2245
      7 C         142.4439  140.0053  167.4379 C.ar    1  UNL1        0.0892
      8 C         142.2190  139.6869  165.9895 C.ar    1  UNL1        0.0198
      9 C         141.7004  140.7445  165.0608 C.ar    1  UNL1        0.0061
     10 C         141.4067  142.1206  165.5806 C.ar    1  UNL1        0.0542
     11 C         141.6316  142.4390  167.0290 C.ar    1  UNL1        0.0126
     12 C         142.1502  141.3814  167.9577 C.ar    1  UNL1        0.0498
     13 S         142.4676  141.4007  169.4236 S.2     1  UNL1       -0.0520
     14 H         143.6947  138.6877  171.3372 H       1  UNL1        0.1442
     15 H         143.3608  140.2520  171.9281 H       1  UNL1        0.1442
     16 C         138.5017  142.1670  164.8328 C.3     1  UNL1        0.1257
     17 C         137.9569  141.0921  163.9395 C.3     1  UNL1        0.1586
     18 O         136.6914  141.3270  163.1693 O.3     1  UNL1       -0.3802
     19 H         135.9489  141.4166  163.7870 H       1  UNL1        0.2105
     20 C         138.9170  144.2590  163.3492 C.3     1  UNL1        0.1205
     21 C         139.3015  144.2383  161.8996 C.ar    1  UNL1       -0.0023
     22 C         140.0186  145.4100  161.2970 C.ar    1  UNL1       -0.0026
     23 C         140.4032  145.3893  159.8473 C.ar    1  UNL1       -0.0003
     24 C         140.0707  144.1969  159.0001 C.ar    1  UNL1       -0.0000
     25 C         139.3536  143.0252  159.6027 C.ar    1  UNL1       -0.0003
     26 C         138.9691  143.0460  161.0524 C.ar    1  UNL1       -0.0026
@<TRIPOS>BOND
     1     4     5    1
     2     5     6   ar
     3     6     7   ar
     4     7     8   ar
     5     8     9   ar
     6     9    10   ar
     7    10     1    1
     8     1     2    2
     9     1     3   am
    10     3    16    1
    11    16    17    1
    12    17    18    1
    13     3    20    1
    14    20    21    1
    15    21    22   ar
    16    22    23   ar
    17    23    24   ar
    18    24    25   ar
    19    25    26   ar
    20    10    11   ar
    21    11    12   ar
    22    12    13   ar
    23    13     5   ar
    24    12     7   ar
    25    26    21   ar
    26     4    14    1
    27     4    15    1
    28    18    19    1
@<TRIPOS>MOLECULE
*****
 26 28 0 0 0
SMALL
GASTEIGER

@<TRIPOS>ATOM
      1 C         141.1335  142.8551  164.2419 C.2     1  UNL1        0.2493
      2 O         142.3674  142.4354  163.4994 O.2     1  UNL1       -0.2699
      3 N         140.3870  144.0861  163.8207 N.am    1  UNL1       -0.2694
      4 N         140.2776  140.1364  171.5563 N.pl3   1  UNL1       -0.3375
      5 C         140.2426  140.4583  170.0916 C.ar    1  UNL1        0.1567
      6 N         139.3845  139.7861  169.0613 N.ar    1  UNL1       -0.2245
      7 C         139.6712  140.4213  167.7331 C.ar    1  UNL1        0.0892
      8 C         139.1232  140.1676  166.3600 C.ar    1  UNL1        0.0198
      9 C         139.6106  140.9789  165.1963 C.ar    1  UNL1        0.0061
     10 C         140.6460  142.0439  165.4057 C.ar    1  UNL1        0.0542
     11 C         141.1940  142.2975  166.7788 C.ar    1  UNL1        0.0126
     12 C         140.7066  141.4862  167.9425 C.ar    1  UNL1        0.0498
     13 S         141.0597  141.5091  169.4001 S.2     1  UNL1       -0.0520
     14 H         139.7005  139.4254  171.9179 H       1  UNL1        0.1442
     15 H         140.8776  140.6361  172.1559 H       1  UNL1        0.1442
     16 C         139.1532  144.5059  164.5632 C.3     1  UNL1        0.1257
     17 C         137.8008  144.0862  164.0682 C.3     1  UNL1        0.1586
     18 O         137.2955  144.5901  162.7488 O.3     1  UNL1       -0.3802
     19 H         137.1594  145.5492  162.7996 H       1  UNL1        0.2105
     20 C         140.8745  144.8974  162.6570 C.3     1  UNL1        0.1205
     21 C         140.4841  144.5149  161.2601 C.ar    1  UNL1       -0.0023
     22 C         139.8407  143.1854  160.9986 C.ar    1  UNL1       -0.0026
     23 C         139.4503  142.8029  159.6017 C.ar    1  UNL1       -0.0003
     24 C         139.7034  143.7500  158.4663 C.ar    1  UNL1       -0.0000
     25 C         140.3467  145.0795  158.7278 C.ar    1  UNL1       -0.0003
     26 C         140.7371  145.4620  160.1248 C.ar    1  UNL1       -0.0026
@<TRIPOS>BOND
     1     4     5    1
     2     5     6   ar
     3     6     7   ar
     4     7     8   ar
     5     8     9   ar
     6     9    10   ar
     7    10     1    1
     8     1     2    2
     9     1     3   am
    10     3    16    1
    11    16    17    1
    12    17    18    1
    13     3    20    1
    14    20    21    1
    15    21    22   ar
    16    22    23   ar
    17    23    24   ar
    18    24    25   ar
    19    25    26   ar
    20    10    11   ar
    21    11    12   ar
    22    12    13   ar
    23    13     5   ar
    24    12     7   ar
    25    26    21   ar
    26     4    14    1
    27     4    15    1
    28    18    19    1
@<TRIPOS>MOLECULE
*****
 26 28 0 0 0
SMALL
GASTEIGER

@<TRIPOS>ATOM
      1 C         138.6225  139.8157  165.6838 C.2     1  UNL1        0.2493
      2 O         137.6254  138.9839  166.4348 O.2     1  UNL1       -0.2699
      3 N         139.7631  140.4603  166.4142 N.am    1  UNL1       -0.2694
      4 N         139.3330  138.6582  157.9522 N.pl3   1  UNL1       -0.3375
      5 C         139.0400  139.1081  159.3528 C.ar    1  UNL1        0.1567
      6 N         138.2251  140.3058  159.7419 N.ar    1  UNL1       -0.2245
      7 C         138.1919  140.3772  161.2398 C.ar    1  UNL1        0.0892
      8 C         137.5410  141.3436  162.1844 C.ar    1  UNL1        0.0198
      9 C         137.6845  141.1564  163.6657 C.ar    1  UNL1        0.0061
     10 C         138.4790  140.0029  164.2024 C.ar    1  UNL1        0.0542
     11 C         139.1300  139.0365  163.2579 C.ar    1  UNL1        0.0126
     12 C         138.9864  139.2237  161.7766 C.ar    1  UNL1        0.0498
     13 S         139.5106  138.4393  160.6103 S.2     1  UNL1       -0.0520
     14 H         138.9775  139.1663  157.1875 H       1  UNL1        0.1442
     15 H         139.8807  137.8549  157.7976 H       1  UNL1        0.1442
     16 C         140.7602  141.2921  165.6633 C.3     1  UNL1        0.1257
     17 C         141.9966  140.6551  165.1012 C.3     1  UNL1        0.1586
     18 O         142.2471  139.1910  165.3100 O.3     1  UNL1       -0.3802
     19 H         142.3905  139.0189  166.2538 H       1  UNL1        0.2105
     20 C         139.9066  140.2732  167.8956 C.3     1  UNL1        0.1205
     21 C         140.8609  141.1321  168.6711 C.ar    1  UNL1       -0.0023
     22 C         142.2614  140.6579  168.9237 C.ar    1  UNL1       -0.0026
     23 C         143.2157  141.5168  169.6992 C.ar    1  UNL1       -0.0003
     24 C         142.7696  142.8501  170.2222 C.ar    1  UNL1       -0.0000
     25 C         141.3691  143.3243  169.9696 C.ar    1  UNL1       -0.0003
     26 C         140.4148  142.4653  169.1940 C.ar    1  UNL1       -0.0026
@<TRIPOS>BOND
     1     4     5    1
     2     5     6   ar
     3     6     7   ar
     4     7     8   ar
     5     8     9   ar
     6     9    10   ar
     7    10     1    1
     8     1     2    2
     9     1     3   am
    10     3    16    1
    11    16    17    1
    12    17    18    1
    13     3    20    1
    14    20    21    1
    15    21    22   ar
    16    22    23   ar
    17    23    24   ar
    18    24    25   ar
    19    25    26   ar
    20    10    11   ar
    21    11    12   ar
    22    12    13   ar
    23    13     5   ar
    24    12     7   ar
    25    26    21   ar
    26     4    14    1
    27     4    15    1
    28    18    19    1
@<TRIPOS>MOLECULE
*****
 26 28 0 0 0
SMALL
GASTEIGER

@<TRIPOS>ATOM
      1 C         139.2776  139.8116  166.2288 C.2     1  UNL1        0.2493
      2 O         138.2229  138.8830  166.7535 O.2     1  UNL1       -0.2699
      3 N         139.2125  140.2958  164.8106 N.am    1  UNL1       -0.2694
      4 N         143.4346  144.0268  171.3839 N.pl3   1  UNL1       -0.3375
      5 C         142.8715  143.0499  170.3947 C.ar    1  UNL1        0.1567
      6 N         143.5635  141.8256  169.8730 N.ar    1  UNL1       -0.2245
      7 C         142.6373  141.1447  168.9094 C.ar    1  UNL1        0.0892
      8 C         142.7819  139.8969  168.0897 C.ar    1  UNL1        0.0198
      9 C         141.6620  139.4525  167.1962 C.ar    1  UNL1        0.0061
     10 C         140.3975  140.2560  167.1224 C.ar    1  UNL1        0.0542
     11 C         140.2529  141.5038  167.9421 C.ar    1  UNL1        0.0126
     12 C         141.3728  141.9481  168.8356 C.ar    1  UNL1        0.0498
     13 S         141.5175  143.1256  169.7536 S.2     1  UNL1       -0.0520
     14 H         144.3381  143.8908  171.7504 H       1  UNL1        0.1442
     15 H         142.9006  144.8042  171.6666 H       1  UNL1        0.1442
     16 C         140.2672  141.2244  164.2859 C.3     1  UNL1        0.1257
     17 C         140.0254  142.7048  164.2757 C.3     1  UNL1        0.1586
     18 O         140.1898  143.4828  163.0038 O.3     1  UNL1       -0.3802
     19 H         141.1215  143.4686  162.7342 H       1  UNL1        0.2105
     20 C         138.0926  139.8514  163.9171 C.3     1  UNL1        0.1205
     21 C         138.3386  139.6462  162.4517 C.ar    1  UNL1       -0.0023
     22 C         139.1661  138.4853  161.9854 C.ar    1  UNL1       -0.0026
     23 C         139.4122  138.2801  160.5201 C.ar    1  UNL1       -0.0003
     24 C         138.8307  139.2360  159.5209 C.ar    1  UNL1       -0.0000
     25 C         138.0032  140.3970  159.9871 C.ar    1  UNL1       -0.0003
     26 C         137.7572  140.6021  161.4526 C.ar    1  UNL1       -0.0026
@<TRIPOS>BOND
     1     4     5    1
     2     5     6   ar
     3     6     7   ar
     4     7     8   ar
     5     8     9   ar
     6     9    10   ar
     7    10     1    1
     8     1     2    2
     9     1     3   am
    10     3    16    1
    11    16    17    1
    12    17    18    1
    13     3    20    1
    14    20    21    1
    15    21    22   ar
    16    22    23   ar
    17    23    24   ar
    18    24    25   ar
    19    25    26   ar
    20    10    11   ar
    21    11    12   ar
    22    12    13   ar
    23    13     5   ar
    24    12     7   ar
    25    26    21   ar
    26     4    14    1
    27     4    15    1
    28    18    19    1
@<TRIPOS>MOLECULE
*****
 26 28 0 0 0
SMALL
GASTEIGER

@<TRIPOS>ATOM
      1 C         138.9977  139.8845  164.8605 C.2     1  UNL1        0.2493
      2 O         138.3061  138.6173  164.4532 O.2     1  UNL1       -0.2699
      3 N         138.6156  141.1864  164.2208 N.am    1  UNL1       -0.2694
      4 N         142.6011  140.3817  171.8169 N.pl3   1  UNL1       -0.3375
      5 C         142.1734  140.2153  170.3888 C.ar    1  UNL1        0.1567
      6 N         143.0598  139.8282  169.2423 N.ar    1  UNL1       -0.2245
      7 C         142.2185  139.7805  168.0014 C.ar    1  UNL1        0.0892
      8 C         142.5513  139.4576  166.5749 C.ar    1  UNL1        0.0198
      9 C         141.4777  139.4923  165.5280 C.ar    1  UNL1        0.0061
     10 C         140.0713  139.8499  165.9075 C.ar    1  UNL1        0.0542
     11 C         139.7384  140.1727  167.3340 C.ar    1  UNL1        0.0126
     12 C         140.8120  140.1380  168.3810 C.ar    1  UNL1        0.0498
     13 S         140.7842  140.4067  169.8564 S.2     1  UNL1       -0.0520
     14 H         143.5408  140.2330  172.0698 H       1  UNL1        0.1442
     15 H         141.9420  140.6395  172.5013 H       1  UNL1        0.1442
     16 C         139.3072  142.4536  164.6282 C.3     1  UNL1        0.1257
     17 C         138.5105  143.7055  164.8479 C.3     1  UNL1        0.1586
     18 O         139.1521  145.0470  164.6511 O.3     1  UNL1       -0.3802
     19 H         139.8440  145.1756  165.3187 H       1  UNL1        0.2105
     20 C         137.5420  141.2210  163.1738 C.3     1  UNL1        0.1205
     21 C         137.9121  141.3020  161.7225 C.ar    1  UNL1       -0.0023
     22 C         137.8043  140.0851  160.8520 C.ar    1  UNL1       -0.0026
     23 C         138.1745  140.1661  159.4007 C.ar    1  UNL1       -0.0003
     24 C         138.6524  141.4638  158.8197 C.ar    1  UNL1       -0.0000
     25 C         138.7602  142.6807  159.6902 C.ar    1  UNL1       -0.0003
     26 C         138.3900  142.5997  161.1416 C.ar    1  UNL1       -0.0026
@<TRIPOS>BOND
     1     4     5    1
     2     5     6   ar
     3     6     7   ar
     4     7     8   ar
     5     8     9   ar
     6     9    10   ar
     7    10     1    1
     8     1     2    2
     9     1     3   am
    10     3    16    1
    11    16    17    1
    12    17    18    1
    13     3    20    1
    14    20    21    1
    15    21    22   ar
    16    22    23   ar
    17    23    24   ar
    18    24    25   ar
    19    25    26   ar
    20    10    11   ar
    21    11    12   ar
    22    12    13   ar
    23    13     5   ar
    24    12     7   ar
    25    26    21   ar
    26     4    14    1
    27     4    15    1
    28    18    19    1
