@<TRIPOS>MOLECULE
*****
 28 31 0 0 0
SMALL
GASTEIGER

@<TRIPOS>ATOM
      1 C         141.0736  143.0547  163.3110 C.3     1  UNL1        0.1910
      2 C         142.2762  142.1966  163.0513 C.3     1  UNL1        0.0423
      3 C         142.6716  141.1406  164.0403 C.3     1  UNL1        0.0404
      4 C         143.8742  140.2824  163.7807 C.3     1  UNL1        0.0569
      5 C         144.6814  140.4804  162.5320 C.3     1  UNL1        0.0122
      6 S         144.2697  139.2263  164.7697 S.3     1  UNL1       -0.0816
      7 C         143.4625  139.0283  166.0185 C.2     1  UNL1        0.1482
      8 N         143.8580  137.9721  167.0075 N.pl3   1  UNL1       -0.3380
      9 N         142.2600  139.8864  166.2781 N.2     1  UNL1       -0.2484
     10 C         141.8645  140.9425  165.2891 C.3     1  UNL1        0.1352
     11 C         140.6619  141.8006  165.5488 C.3     1  UNL1        0.1692
     12 O         140.2665  142.8567  164.5597 O.3     1  UNL1       -0.3446
     13 H         144.6473  137.4089  166.8371 H       1  UNL1        0.1442
     14 H         143.3283  137.8422  167.8271 H       1  UNL1        0.1442
     15 C         141.0573  140.7445  166.5378 C.ar    1  UNL1        0.0278
     16 C         139.8686  139.8298  166.5253 C.ar    1  UNL1        0.0021
     17 C         139.0614  139.6318  167.7740 C.ar    1  UNL1        0.0295
     18 C         139.4431  140.3485  169.0353 C.ar    1  UNL1        0.1424
     19 F         138.6359  140.1505  170.2840 F       1  UNL1       -0.2041
     20 C         140.6318  141.2632  169.0477 C.ar    1  UNL1        0.0590
     21 C         141.4389  141.4612  167.7990 C.ar    1  UNL1        0.1402
     22 F         142.6277  142.3759  167.8115 F       1  UNL1       -0.2044
     23 C         140.3287  145.6690  158.7842 C.3     1  UNL1        0.0556
     24 C         140.3357  145.3125  160.2412 C.ar    1  UNL1        0.0997
     25 C         139.8033  146.1597  161.3588 C.ar    1  UNL1        0.1958
     26 O         140.0149  145.4170  162.6447 O.2     1  UNL1       -0.4331
     27 C         140.6781  144.1109  162.3219 C.ar    1  UNL1        0.2327
     28 N         140.8764  144.0463  160.8365 N.ar    1  UNL1       -0.2144
@<TRIPOS>BOND
     1    23    24    1
     2    24    25   ar
     3    25    26   ar
     4    26    27   ar
     5     1    27    1
     6     1     2    1
     7     3     2    1
     8     3     4    1
     9     4     5    1
    10     4     6    1
    11     6     7    1
    12     7     8    1
    13     7     9    2
    14     9    10    1
    15    10    15    1
    16    15    16   ar
    17    16    17   ar
    18    17    18   ar
    19    18    19    1
    20    18    20   ar
    21    20    21   ar
    22    21    22    1
    23    10    11    1
    24    11    12    1
    25    27    28   ar
    26    28    24   ar
    27    12     1    1
    28    10     3    1
    29    21    15   ar
    30     8    13    1
    31     8    14    1
@<TRIPOS>MOLECULE
*****
 28 31 0 0 0
SMALL
GASTEIGER

@<TRIPOS>ATOM
      1 C         142.0635  141.9486  165.9599 C.3     1  UNL1        0.1910
      2 C         140.9547  142.9409  165.7703 C.3     1  UNL1        0.0423
      3 C         140.6374  143.4579  164.3985 C.3     1  UNL1        0.0404
      4 C         139.5286  144.4503  164.2089 C.3     1  UNL1        0.0569
      5 C         138.7371  144.9255  165.3911 C.3     1  UNL1        0.0122
      6 S         139.2113  144.9673  162.8371 S.3     1  UNL1       -0.0816
      7 C         140.0027  144.4920  161.6548 C.2     1  UNL1        0.1482
      8 N         139.6853  145.0091  160.2829 N.pl3   1  UNL1       -0.3380
      9 N         141.1115  143.4998  161.8444 N.2     1  UNL1       -0.2484
     10 C         141.4288  142.9827  163.2162 C.3     1  UNL1        0.1352
     11 C         142.5376  141.9904  163.4058 C.3     1  UNL1        0.1692
     12 O         142.8549  141.4734  164.7776 O.3     1  UNL1       -0.3446
     13 H         138.9576  145.6604  160.1585 H       1  UNL1        0.1442
     14 H         140.2048  144.6972  159.5069 H       1  UNL1        0.1442
     15 C         142.2203  142.5074  162.0340 C.ar    1  UNL1        0.0278
     16 C         141.7673  141.3028  161.2634 C.ar    1  UNL1        0.0021
     17 C         142.5587  140.8275  160.0812 C.ar    1  UNL1        0.0295
     18 C         143.8032  141.5569  159.6695 C.ar    1  UNL1        0.1424
     19 F         144.5946  141.0816  158.4872 F       1  UNL1       -0.2041
     20 C         144.2561  142.7615  160.4400 C.ar    1  UNL1        0.0590
     21 C         143.4647  143.2367  161.6223 C.ar    1  UNL1        0.1402
     22 F         143.9176  144.4413  162.3928 F       1  UNL1       -0.2044
     23 C         142.5754  138.7427  170.1241 C.3     1  UNL1        0.0556
     24 C         142.6161  139.9580  169.2458 C.ar    1  UNL1        0.0997
     25 C         143.1223  141.3139  169.6398 C.ar    1  UNL1        0.1958
     26 O         142.9769  142.2246  168.4568 O.2     1  UNL1       -0.4331
     27 C         142.3808  141.4316  167.3318 C.ar    1  UNL1        0.2327
     28 N         142.1579  140.0307  167.8194 N.ar    1  UNL1       -0.2144
@<TRIPOS>BOND
     1    23    24    1
     2    24    25   ar
     3    25    26   ar
     4    26    27   ar
     5     1    27    1
     6     1     2    1
     7     3     2    1
     8     3     4    1
     9     4     5    1
    10     4     6    1
    11     6     7    1
    12     7     8    1
    13     7     9    2
    14     9    10    1
    15    10    15    1
    16    15    16   ar
    17    16    17   ar
    18    17    18   ar
    19    18    19    1
    20    18    20   ar
    21    20    21   ar
    22    21    22    1
    23    10    11    1
    24    11    12    1
    25    27    28   ar
    26    28    24   ar
    27    12     1    1
    28    10     3    1
    29    21    15   ar
    30     8    13    1
    31     8    14    1
@<TRIPOS>MOLECULE
*****
 28 31 0 0 0
SMALL
GASTEIGER

@<TRIPOS>ATOM
      1 C         141.4023  142.6727  161.9649 C.3     1  UNL1        0.1910
      2 C         142.8066  142.2802  162.3169 C.3     1  UNL1        0.0423
      3 C         143.0526  141.2185  163.3475 C.3     1  UNL1        0.0404
      4 C         144.4569  140.8259  163.6995 C.3     1  UNL1        0.0569
      5 C         145.6152  141.4951  163.0208 C.3     1  UNL1        0.0122
      6 S         144.7029  139.7642  164.7301 S.3     1  UNL1       -0.0816
      7 C         143.5446  139.0950  165.4088 C.2     1  UNL1        0.1482
      8 N         143.7907  138.0333  166.4395 N.pl3   1  UNL1       -0.3380
      9 N         142.1403  139.4876  165.0569 N.2     1  UNL1       -0.2484
     10 C         141.8943  140.5493  164.0262 C.3     1  UNL1        0.1352
     11 C         140.4900  140.9418  163.6743 C.3     1  UNL1        0.1692
     12 O         140.2440  142.0035  162.6436 O.3     1  UNL1       -0.3446
     13 H         144.7124  137.7757  166.6705 H       1  UNL1        0.1442
     14 H         143.0305  137.5941  166.8850 H       1  UNL1        0.1442
     15 C         140.7360  139.8801  164.7049 C.ar    1  UNL1        0.0278
     16 C         140.1561  140.4713  165.9556 C.ar    1  UNL1        0.0021
     17 C         138.9978  139.8022  166.6343 C.ar    1  UNL1        0.0295
     18 C         138.4195  138.5418  166.0623 C.ar    1  UNL1        0.1424
     19 F         137.2612  137.8726  166.7410 F       1  UNL1       -0.2041
     20 C         138.9994  137.9507  164.8116 C.ar    1  UNL1        0.0590
     21 C         140.1577  138.6199  164.1329 C.ar    1  UNL1        0.1402
     22 F         140.7376  138.0288  162.8823 F       1  UNL1       -0.2044
     23 C         142.0067  145.8735  157.8091 C.3     1  UNL1        0.0556
     24 C         141.4340  145.2057  159.0241 C.ar    1  UNL1        0.0997
     25 C         140.1210  145.5308  159.6725 C.ar    1  UNL1        0.1958
     26 O         139.9494  144.6215  160.8530 O.2     1  UNL1       -0.4331
     27 C         141.1562  143.7344  160.9342 C.ar    1  UNL1        0.2327
     28 N         142.0738  144.0955  159.8039 N.ar    1  UNL1       -0.2144
@<TRIPOS>BOND
     1    23    24    1
     2    24    25   ar
     3    25    26   ar
     4    26    27   ar
     5     1    27    1
     6     1     2    1
     7     3     2    1
     8     3     4    1
     9     4     5    1
    10     4     6    1
    11     6     7    1
    12     7     8    1
    13     7     9    2
    14     9    10    1
    15    10    15    1
    16    15    16   ar
    17    16    17   ar
    18    17    18   ar
    19    18    19    1
    20    18    20   ar
    21    20    21   ar
    22    21    22    1
    23    10    11    1
    24    11    12    1
    25    27    28   ar
    26    28    24   ar
    27    12     1    1
    28    10     3    1
    29    21    15   ar
    30     8    13    1
    31     8    14    1
@<TRIPOS>MOLECULE
*****
 28 31 0 0 0
SMALL
GASTEIGER

@<TRIPOS>ATOM
      1 C         141.4102  141.5773  166.6276 C.3     1  UNL1        0.1910
      2 C         140.6643  140.3438  166.2129 C.3     1  UNL1        0.0423
      3 C         139.8555  140.3456  164.9497 C.3     1  UNL1        0.0404
      4 C         139.1095  139.1121  164.5349 C.3     1  UNL1        0.0569
      5 C         139.1724  137.8767  165.3835 C.3     1  UNL1        0.0122
      6 S         138.3008  139.1139  163.2717 S.3     1  UNL1       -0.0816
      7 C         138.2379  140.3492  162.4231 C.2     1  UNL1        0.1482
      8 N         137.4291  140.3510  161.1598 N.pl3   1  UNL1       -0.3380
      9 N         138.9839  141.5827  162.8378 N.2     1  UNL1       -0.2484
     10 C         139.7927  141.5809  164.1012 C.3     1  UNL1        0.1352
     11 C         140.5386  142.8144  164.5159 C.3     1  UNL1        0.1692
     12 O         141.3474  142.8126  165.7791 O.3     1  UNL1       -0.3446
     13 H         136.9395  139.5414  160.8877 H       1  UNL1        0.1442
     14 H         137.3878  141.1618  160.6029 H       1  UNL1        0.1442
     15 C         139.7299  142.8162  163.2526 C.ar    1  UNL1        0.0278
     16 C         140.7352  143.0272  162.1595 C.ar    1  UNL1        0.0021
     17 C         140.6724  144.2625  161.3109 C.ar    1  UNL1        0.0295
     18 C         139.6042  145.2869  161.5555 C.ar    1  UNL1        0.1424
     19 F         139.5413  146.5222  160.7070 F       1  UNL1       -0.2041
     20 C         138.5989  145.0759  162.6486 C.ar    1  UNL1        0.0590
     21 C         138.6618  143.8406  163.4971 C.ar    1  UNL1        0.1402
     22 F         137.6565  143.6296  164.5902 F       1  UNL1       -0.2044
     23 C         144.9072  142.9077  170.3536 C.3     1  UNL1        0.0556
     24 C         143.8264  142.1870  169.6035 C.ar    1  UNL1        0.0997
     25 C         143.1009  140.9584  170.0663 C.ar    1  UNL1        0.1958
     26 O         142.1075  140.5804  169.0079 O.2     1  UNL1       -0.4331
     27 C         142.2191  141.5755  167.8910 C.ar    1  UNL1        0.2327
     28 N         143.2814  142.5684  168.2591 N.ar    1  UNL1       -0.2144
@<TRIPOS>BOND
     1    23    24    1
     2    24    25   ar
     3    25    26   ar
     4    26    27   ar
     5     1    27    1
     6     1     2    1
     7     3     2    1
     8     3     4    1
     9     4     5    1
    10     4     6    1
    11     6     7    1
    12     7     8    1
    13     7     9    2
    14     9    10    1
    15    10    15    1
    16    15    16   ar
    17    16    17   ar
    18    17    18   ar
    19    18    19    1
    20    18    20   ar
    21    20    21   ar
    22    21    22    1
    23    10    11    1
    24    11    12    1
    25    27    28   ar
    26    28    24   ar
    27    12     1    1
    28    10     3    1
    29    21    15   ar
    30     8    13    1
    31     8    14    1
@<TRIPOS>MOLECULE
*****
 28 31 0 0 0
SMALL
GASTEIGER

@<TRIPOS>ATOM
      1 C         141.0764  142.8655  161.8070 C.3     1  UNL1        0.1910
      2 C         142.0938  143.3479  162.7980 C.3     1  UNL1        0.0423
      3 C         142.2465  142.6492  164.1164 C.3     1  UNL1        0.0404
      4 C         143.2640  143.1315  165.1075 C.3     1  UNL1        0.0569
      5 C         144.1287  144.3126  164.7800 C.3     1  UNL1        0.0122
      6 S         143.4167  142.4328  166.4260 S.3     1  UNL1       -0.0816
      7 C         142.5519  141.2518  166.7535 C.2     1  UNL1        0.1482
      8 N         142.7047  140.5531  168.0721 N.pl3   1  UNL1       -0.3380
      9 N         141.5345  140.7694  165.7625 N.2     1  UNL1       -0.2484
     10 C         141.3818  141.4681  164.4439 C.3     1  UNL1        0.1352
     11 C         140.3644  140.9857  163.4530 C.3     1  UNL1        0.1692
     12 O         140.2117  141.6844  162.1345 O.3     1  UNL1       -0.3446
     13 H         143.3725  140.8697  168.7225 H       1  UNL1        0.1442
     14 H         142.1371  139.7779  168.2870 H       1  UNL1        0.1442
     15 C         140.5170  140.2870  164.7714 C.ar    1  UNL1        0.0278
     16 C         139.1841  140.4925  165.4281 C.ar    1  UNL1        0.0021
     17 C         138.3194  139.3114  165.7556 C.ar    1  UNL1        0.0295
     18 C         138.7876  137.9248  165.4264 C.ar    1  UNL1        0.1424
     19 F         137.9228  136.7437  165.7540 F       1  UNL1       -0.2041
     20 C         140.1204  137.7194  164.7698 C.ar    1  UNL1        0.0590
     21 C         140.9852  138.9005  164.4423 C.ar    1  UNL1        0.1402
     22 F         142.3180  138.6950  163.7857 F       1  UNL1       -0.2044
     23 C         142.0332  145.8898  157.5857 C.3     1  UNL1        0.0556
     24 C         141.3635  144.9543  158.5481 C.ar    1  UNL1        0.0997
     25 C         140.0137  144.3243  158.3706 C.ar    1  UNL1        0.1958
     26 O         139.7420  143.4652  159.5698 O.2     1  UNL1       -0.4331
     27 C         140.9237  143.5642  160.4884 C.ar    1  UNL1        0.2327
     28 N         141.9258  144.4845  159.8569 N.ar    1  UNL1       -0.2144
@<TRIPOS>BOND
     1    23    24    1
     2    24    25   ar
     3    25    26   ar
     4    26    27   ar
     5     1    27    1
     6     1     2    1
     7     3     2    1
     8     3     4    1
     9     4     5    1
    10     4     6    1
    11     6     7    1
    12     7     8    1
    13     7     9    2
    14     9    10    1
    15    10    15    1
    16    15    16   ar
    17    16    17   ar
    18    17    18   ar
    19    18    19    1
    20    18    20   ar
    21    20    21   ar
    22    21    22    1
    23    10    11    1
    24    11    12    1
    25    27    28   ar
    26    28    24   ar
    27    12     1    1
    28    10     3    1
    29    21    15   ar
    30     8    13    1
    31     8    14    1
@<TRIPOS>MOLECULE
*****
 28 31 0 0 0
SMALL
GASTEIGER

@<TRIPOS>ATOM
      1 C         142.2793  141.6112  163.5274 C.3     1  UNL1        0.1910
      2 C         141.0694  140.7336  163.4011 C.3     1  UNL1        0.0423
      3 C         140.3135  140.3173  164.6280 C.3     1  UNL1        0.0404
      4 C         139.1036  139.4397  164.5018 C.3     1  UNL1        0.0569
      5 C         138.6495  138.9785  163.1486 C.3     1  UNL1        0.0122
      6 S         138.3477  139.0233  165.7287 S.3     1  UNL1       -0.0816
      7 C         138.8018  139.4845  167.0819 C.2     1  UNL1        0.1482
      8 N         138.0459  139.0681  168.3089 N.pl3   1  UNL1       -0.3380
      9 N         140.0117  140.3621  167.2082 N.2     1  UNL1       -0.2484
     10 C         140.7676  140.7785  165.9812 C.3     1  UNL1        0.1352
     11 C         141.9775  141.6560  166.1075 C.3     1  UNL1        0.1692
     12 O         142.7333  142.0724  164.8806 O.3     1  UNL1       -0.3446
     13 H         137.2518  138.4922  168.2260 H       1  UNL1        0.1442
     14 H         138.3440  139.3708  169.1970 H       1  UNL1        0.1442
     15 C         141.2217  141.2397  167.3344 C.ar    1  UNL1        0.0278
     16 C         140.6861  142.5171  167.9101 C.ar    1  UNL1        0.0021
     17 C         141.1402  142.9783  169.2633 C.ar    1  UNL1        0.0295
     18 C         142.1299  142.1621  170.0408 C.ar    1  UNL1        0.1424
     19 F         142.5840  142.6233  171.3939 F       1  UNL1       -0.2041
     20 C         142.6654  140.8847  169.4650 C.ar    1  UNL1        0.0590
     21 C         142.2113  140.4235  168.1119 C.ar    1  UNL1        0.1402
     22 F         142.7469  139.1462  167.5361 F       1  UNL1       -0.2044
     23 C         143.4021  143.1954  158.6171 C.3     1  UNL1        0.0556
     24 C         143.5513  142.7557  160.0435 C.ar    1  UNL1        0.0997
     25 C         144.8455  142.5808  160.7815 C.ar    1  UNL1        0.1958
     26 O         144.5264  142.1308  162.1763 O.2     1  UNL1       -0.4331
     27 C         143.0351  142.0276  162.3005 C.ar    1  UNL1        0.2327
     28 N         142.4325  142.4138  160.9823 N.ar    1  UNL1       -0.2144
@<TRIPOS>BOND
     1    23    24    1
     2    24    25   ar
     3    25    26   ar
     4    26    27   ar
     5     1    27    1
     6     1     2    1
     7     3     2    1
     8     3     4    1
     9     4     5    1
    10     4     6    1
    11     6     7    1
    12     7     8    1
    13     7     9    2
    14     9    10    1
    15    10    15    1
    16    15    16   ar
    17    16    17   ar
    18    17    18   ar
    19    18    19    1
    20    18    20   ar
    21    20    21   ar
    22    21    22    1
    23    10    11    1
    24    11    12    1
    25    27    28   ar
    26    28    24   ar
    27    12     1    1
    28    10     3    1
    29    21    15   ar
    30     8    13    1
    31     8    14    1
@<TRIPOS>MOLECULE
*****
 28 31 0 0 0
SMALL
GASTEIGER

@<TRIPOS>ATOM
      1 C         141.8135  140.8774  166.5416 C.3     1  UNL1        0.1910
      2 C         142.7763  141.9766  166.2029 C.3     1  UNL1        0.0423
      3 C         142.6981  142.6572  164.8685 C.3     1  UNL1        0.0404
      4 C         143.6610  143.7564  164.5296 C.3     1  UNL1        0.0569
      5 C         144.7019  144.1750  165.5252 C.3     1  UNL1        0.0122
      6 S         143.5828  144.4371  163.1953 S.3     1  UNL1       -0.0816
      7 C         142.5418  144.0185  162.1997 C.2     1  UNL1        0.1482
      8 N         142.4636  144.6993  160.8653 N.pl3   1  UNL1       -0.3380
      9 N         141.5790  142.9194  162.5385 N.2     1  UNL1       -0.2484
     10 C         141.6571  142.2387  163.8729 C.3     1  UNL1        0.1352
     11 C         140.6944  141.1395  164.2117 C.3     1  UNL1        0.1692
     12 O         140.7726  140.4589  165.5461 O.3     1  UNL1       -0.3446
     13 H         143.0955  145.4207  160.6429 H       1  UNL1        0.1442
     14 H         141.7804  144.4246  160.2118 H       1  UNL1        0.1442
     15 C         140.6162  141.8201  162.8773 C.ar    1  UNL1        0.0278
     16 C         140.9191  140.7353  161.8866 C.ar    1  UNL1        0.0021
     17 C         139.8781  140.3168  160.8910 C.ar    1  UNL1        0.0295
     18 C         138.5342  140.9831  160.8862 C.ar    1  UNL1        0.1424
     19 F         137.4932  140.5646  159.8906 F       1  UNL1       -0.2041
     20 C         138.2313  142.0678  161.8769 C.ar    1  UNL1        0.0590
     21 C         139.2723  142.4864  162.8725 C.ar    1  UNL1        0.1402
     22 F         138.9694  143.5711  163.8632 F       1  UNL1       -0.2044
     23 C         143.3147  137.6845  170.4702 C.3     1  UNL1        0.0556
     24 C         142.5817  138.7291  169.6818 C.ar    1  UNL1        0.0997
     25 C         141.4421  139.5694  170.1772 C.ar    1  UNL1        0.1958
     26 O         141.0157  140.4764  169.0612 O.2     1  UNL1       -0.4331
     27 C         141.8917  140.1967  167.8761 C.ar    1  UNL1        0.2327
     28 N         142.8595  139.1168  168.2596 N.ar    1  UNL1       -0.2144
@<TRIPOS>BOND
     1    23    24    1
     2    24    25   ar
     3    25    26   ar
     4    26    27   ar
     5     1    27    1
     6     1     2    1
     7     3     2    1
     8     3     4    1
     9     4     5    1
    10     4     6    1
    11     6     7    1
    12     7     8    1
    13     7     9    2
    14     9    10    1
    15    10    15    1
    16    15    16   ar
    17    16    17   ar
    18    17    18   ar
    19    18    19    1
    20    18    20   ar
    21    20    21   ar
    22    21    22    1
    23    10    11    1
    24    11    12    1
    25    27    28   ar
    26    28    24   ar
    27    12     1    1
    28    10     3    1
    29    21    15   ar
    30     8    13    1
    31     8    14    1
@<TRIPOS>MOLECULE
*****
 28 31 0 0 0
SMALL
GASTEIGER

@<TRIPOS>ATOM
      1 C         141.6824  141.7742  166.2471 C.3     1  UNL1        0.1910
      2 C         140.6399  142.8131  165.9576 C.3     1  UNL1        0.0423
      3 C         139.9789  142.8576  164.6119 C.3     1  UNL1        0.0404
      4 C         138.9363  143.8965  164.3223 C.3     1  UNL1        0.0569
      5 C         138.5548  144.8908  165.3786 C.3     1  UNL1        0.0122
      6 S         138.2753  143.9410  162.9766 S.3     1  UNL1       -0.0816
      7 C         138.6568  142.9466  161.9204 C.2     1  UNL1        0.1482
      8 N         137.9957  142.9912  160.5746 N.pl3   1  UNL1       -0.3380
      9 N         139.6993  141.9077  162.2098 N.2     1  UNL1       -0.2484
     10 C         140.3604  141.8632  163.5556 C.3     1  UNL1        0.1352
     11 C         141.4029  140.8243  163.8451 C.3     1  UNL1        0.1692
     12 O         142.0639  140.7798  165.1908 O.3     1  UNL1       -0.3446
     13 H         137.3114  143.6730  160.3846 H       1  UNL1        0.1442
     14 H         138.2461  142.3385  159.8813 H       1  UNL1        0.1442
     15 C         140.7419  140.8688  162.4994 C.ar    1  UNL1        0.0278
     16 C         141.8693  141.1709  161.5571 C.ar    1  UNL1        0.0021
     17 C         142.2508  140.1765  160.5008 C.ar    1  UNL1        0.0295
     18 C         141.5049  138.8801  160.3868 C.ar    1  UNL1        0.1424
     19 F         141.8864  137.8857  159.3306 F       1  UNL1       -0.2041
     20 C         140.3776  138.5781  161.3291 C.ar    1  UNL1        0.0590
     21 C         139.9961  139.5724  162.3853 C.ar    1  UNL1        0.1402
     22 F         138.8687  139.2704  163.3276 F       1  UNL1       -0.2044
     23 C         144.8400  142.8868  170.3303 C.3     1  UNL1        0.0556
     24 C         143.7948  142.2410  169.4697 C.ar    1  UNL1        0.0997
     25 C         142.9265  141.0810  169.8578 C.ar    1  UNL1        0.1958
     26 O         142.0296  140.7650  168.6979 O.2     1  UNL1       -0.4331
     27 C         142.3435  141.7296  167.5929 C.ar    1  UNL1        0.2327
     28 N         143.4344  142.6418  168.0699 N.ar    1  UNL1       -0.2144
@<TRIPOS>BOND
     1    23    24    1
     2    24    25   ar
     3    25    26   ar
     4    26    27   ar
     5     1    27    1
     6     1     2    1
     7     3     2    1
     8     3     4    1
     9     4     5    1
    10     4     6    1
    11     6     7    1
    12     7     8    1
    13     7     9    2
    14     9    10    1
    15    10    15    1
    16    15    16   ar
    17    16    17   ar
    18    17    18   ar
    19    18    19    1
    20    18    20   ar
    21    20    21   ar
    22    21    22    1
    23    10    11    1
    24    11    12    1
    25    27    28   ar
    26    28    24   ar
    27    12     1    1
    28    10     3    1
    29    21    15   ar
    30     8    13    1
    31     8    14    1
@<TRIPOS>MOLECULE
*****
 28 31 0 0 0
SMALL
GASTEIGER

@<TRIPOS>ATOM
      1 C         140.2976  140.5875  166.5652 C.3     1  UNL1        0.1910
      2 C         139.8337  139.4837  165.6617 C.3     1  UNL1        0.0423
      3 C         139.4184  139.7916  164.2536 C.3     1  UNL1        0.0404
      4 C         138.9545  138.6878  163.3500 C.3     1  UNL1        0.0569
      5 C         138.9059  137.2760  163.8546 C.3     1  UNL1        0.0122
      6 S         138.5392  138.9957  161.9419 S.3     1  UNL1       -0.0816
      7 C         138.5879  140.4075  161.4374 C.2     1  UNL1        0.1482
      8 N         138.1726  140.7154  160.0292 N.pl3   1  UNL1       -0.3380
      9 N         139.0518  141.5113  162.3409 N.2     1  UNL1       -0.2484
     10 C         139.4671  141.2034  163.7490 C.3     1  UNL1        0.1352
     11 C         139.9309  142.3072  164.6525 C.3     1  UNL1        0.1692
     12 O         140.3462  141.9993  166.0606 O.3     1  UNL1       -0.3446
     13 H         137.8681  139.9909  159.4362 H       1  UNL1        0.1442
     14 H         138.2045  141.6419  159.6980 H       1  UNL1        0.1442
     15 C         139.5157  142.6151  163.2445 C.ar    1  UNL1        0.0278
     16 C         140.7604  143.1345  162.5878 C.ar    1  UNL1        0.0021
     17 C         140.8091  144.5462  162.0833 C.ar    1  UNL1        0.0295
     18 C         139.6130  145.4386  162.2353 C.ar    1  UNL1        0.1424
     19 F         139.6616  146.8504  161.7307 F       1  UNL1       -0.2041
     20 C         138.3684  144.9193  162.8919 C.ar    1  UNL1        0.0590
     21 C         138.3197  143.5076  163.3965 C.ar    1  UNL1        0.1402
     22 F         137.0751  142.9882  164.0530 F       1  UNL1       -0.2044
     23 C         143.2465  139.8251  170.8784 C.3     1  UNL1        0.0556
     24 C         142.0683  139.9292  169.9559 C.ar    1  UNL1        0.0997
     25 C         140.6353  139.6824  170.3245 C.ar    1  UNL1        0.1958
     26 O         139.7976  139.8990  169.0992 O.2     1  UNL1       -0.4331
     27 C         140.7128  140.2796  167.9733 C.ar    1  UNL1        0.2327
     28 N         142.1161  140.2983  168.5028 N.ar    1  UNL1       -0.2144
@<TRIPOS>BOND
     1    23    24    1
     2    24    25   ar
     3    25    26   ar
     4    26    27   ar
     5     1    27    1
     6     1     2    1
     7     3     2    1
     8     3     4    1
     9     4     5    1
    10     4     6    1
    11     6     7    1
    12     7     8    1
    13     7     9    2
    14     9    10    1
    15    10    15    1
    16    15    16   ar
    17    16    17   ar
    18    17    18   ar
    19    18    19    1
    20    18    20   ar
    21    20    21   ar
    22    21    22    1
    23    10    11    1
    24    11    12    1
    25    27    28   ar
    26    28    24   ar
    27    12     1    1
    28    10     3    1
    29    21    15   ar
    30     8    13    1
    31     8    14    1
