@<TRIPOS>MOLECULE
*****
 26 28 0 0 0
SMALL
GASTEIGER

@<TRIPOS>ATOM
      1 C         140.0861  138.1622  161.3388 C.3     1  UNL1        0.0497
      2 C         141.1370  138.5631  162.3312 C.ar    1  UNL1        0.0348
      3 C         142.6157  138.3623  162.1791 C.ar    1  UNL1        0.0070
      4 C         143.2862  138.9104  163.4039 C.ar    1  UNL1        0.0154
      5 C         142.2220  139.4500  164.3128 C.ar    1  UNL1        0.0594
      6 N         140.8937  139.2354  163.6498 N.ar    1  UNL1       -0.3309
      7 C         142.4466  140.0916  165.6500 C.ar    1  UNL1        0.0158
      8 C         142.7290  141.5620  165.7384 C.ar    1  UNL1        0.0011
      9 C         142.9536  142.2036  167.0755 C.ar    1  UNL1       -0.0042
     10 C         142.8959  141.3747  168.3242 C.ar    1  UNL1       -0.0225
     11 C         142.6135  139.9042  168.2359 C.ar    1  UNL1       -0.0042
     12 C         142.3889  139.2626  166.8988 C.ar    1  UNL1        0.0011
     13 C         143.1205  142.0162  169.6613 C.3     1  UNL1        0.0224
     14 C         142.0295  142.0066  170.6906 C.3     1  UNL1        0.0047
     15 C         144.4362  142.6674  169.9692 C.3     1  UNL1        0.0047
     16 C         143.3031  137.7252  161.0080 C.3     1  UNL1        0.1004
     17 N         143.2971  138.4080  159.6724 N.3     1  UNL1       -0.2646
     18 C         142.7388  137.7028  158.4721 C.3     1  UNL1        0.1049
     19 C         142.7328  138.3856  157.1365 C.3     1  UNL1        0.1595
     20 O         143.2851  139.7737  157.0014 O.3     1  UNL1       -0.3508
     21 C         143.8434  140.4789  158.2017 C.3     1  UNL1        0.1595
     22 C         143.8494  139.7961  159.5372 C.3     1  UNL1        0.1049
     23 C         139.5567  139.6246  164.2076 C.3     1  UNL1        0.1056
     24 C         138.8977  138.7647  165.2450 C.3     1  UNL1        0.0226
     25 C         138.1967  139.3988  166.4098 C.3     1  UNL1        0.0020
     26 C         138.9396  137.2707  165.1176 C.3     1  UNL1        0.0020
@<TRIPOS>BOND
     1     1     2    1
     2     2     3   ar
     3     3    16    1
     4    16    17    1
     5    17    18    1
     6    18    19    1
     7    19    20    1
     8    20    21    1
     9    21    22    1
    10     3     4   ar
    11     4     5   ar
    12     5     7    1
    13     7     8   ar
    14     8     9   ar
    15     9    10   ar
    16    10    13    1
    17    13    14    1
    18    13    15    1
    19    10    11   ar
    20    11    12   ar
    21     5     6   ar
    22     6    23    1
    23    23    24    1
    24    24    25    1
    25    24    26    1
    26     6     2   ar
    27    22    17    1
    28    12     7   ar
@<TRIPOS>MOLECULE
*****
 26 28 0 0 0
SMALL
GASTEIGER

@<TRIPOS>ATOM
      1 C         137.6583  140.3473  161.2886 C.3     1  UNL1        0.0497
      2 C         138.4755  140.0767  162.5170 C.ar    1  UNL1        0.0348
      3 C         139.5025  138.9944  162.6720 C.ar    1  UNL1        0.0070
      4 C         140.0709  139.0897  164.0569 C.ar    1  UNL1        0.0154
      5 C         139.3952  140.2308  164.7578 C.ar    1  UNL1        0.0594
      6 N         138.4092  140.8408  163.8061 N.ar    1  UNL1       -0.3309
      7 C         139.6591  140.6826  166.1636 C.ar    1  UNL1        0.0158
      8 C         140.3751  141.9767  166.4135 C.ar    1  UNL1        0.0011
      9 C         140.6390  142.4285  167.8193 C.ar    1  UNL1       -0.0042
     10 C         140.1870  141.5861  168.9751 C.ar    1  UNL1       -0.0225
     11 C         139.4711  140.2919  168.7252 C.ar    1  UNL1       -0.0042
     12 C         139.2072  139.8401  167.3195 C.ar    1  UNL1        0.0011
     13 C         140.4510  142.0379  170.3809 C.3     1  UNL1        0.0224
     14 C         139.5765  143.0816  171.0099 C.3     1  UNL1        0.0047
     15 C         141.5895  141.4460  171.1576 C.3     1  UNL1        0.0047
     16 C         139.8926  137.9928  161.6258 C.3     1  UNL1        0.1004
     17 N         141.1182  138.2189  160.7910 N.3     1  UNL1       -0.2646
     18 C         142.4798  138.0337  161.3922 C.3     1  UNL1        0.1049
     19 C         143.7053  138.2598  160.5574 C.3     1  UNL1        0.1595
     20 O         143.5692  138.6711  159.1213 O.3     1  UNL1       -0.3508
     21 C         142.2075  138.8563  158.5201 C.3     1  UNL1        0.1595
     22 C         140.9820  138.6302  159.3549 C.3     1  UNL1        0.1049
     23 C         137.5140  142.0097  164.0931 C.3     1  UNL1        0.1056
     24 C         138.0026  143.4065  163.8479 C.3     1  UNL1        0.0226
     25 C         138.4382  143.8182  162.4728 C.3     1  UNL1        0.0020
     26 C         138.0555  144.3917  164.9778 C.3     1  UNL1        0.0020
@<TRIPOS>BOND
     1     1     2    1
     2     2     3   ar
     3     3    16    1
     4    16    17    1
     5    17    18    1
     6    18    19    1
     7    19    20    1
     8    20    21    1
     9    21    22    1
    10     3     4   ar
    11     4     5   ar
    12     5     7    1
    13     7     8   ar
    14     8     9   ar
    15     9    10   ar
    16    10    13    1
    17    13    14    1
    18    13    15    1
    19    10    11   ar
    20    11    12   ar
    21     5     6   ar
    22     6    23    1
    23    23    24    1
    24    24    25    1
    25    24    26    1
    26     6     2   ar
    27    22    17    1
    28    12     7   ar
@<TRIPOS>MOLECULE
*****
 26 28 0 0 0
SMALL
GASTEIGER

@<TRIPOS>ATOM
      1 C         137.7428  140.3027  161.5630 C.3     1  UNL1        0.0497
      2 C         139.0028  140.6310  162.3076 C.ar    1  UNL1        0.0348
      3 C         140.2888  141.1054  161.6984 C.ar    1  UNL1        0.0070
      4 C         141.2789  141.3102  162.8065 C.ar    1  UNL1        0.0154
      5 C         140.6048  140.9622  164.1006 C.ar    1  UNL1        0.0594
      6 N         139.1981  140.5425  163.7922 N.ar    1  UNL1       -0.3309
      7 C         141.2280  141.0233  165.4636 C.ar    1  UNL1        0.0158
      8 C         140.9912  142.2145  166.3438 C.ar    1  UNL1        0.0011
      9 C         141.6143  142.2756  167.7069 C.ar    1  UNL1       -0.0042
     10 C         142.4743  141.1455  168.1897 C.ar    1  UNL1       -0.0225
     11 C         142.7111  139.9542  167.3095 C.ar    1  UNL1       -0.0042
     12 C         142.0880  139.8931  165.9464 C.ar    1  UNL1        0.0011
     13 C         143.0974  141.2066  169.5527 C.3     1  UNL1        0.0224
     14 C         142.8558  140.1018  170.5381 C.3     1  UNL1        0.0047
     15 C         143.9622  142.3726  169.9305 C.3     1  UNL1        0.0047
     16 C         140.5405  141.3349  160.2376 C.3     1  UNL1        0.1004
     17 N         141.0501  142.6639  159.7640 N.3     1  UNL1       -0.2646
     18 C         142.1407  142.7259  158.7362 C.3     1  UNL1        0.1049
     19 C         142.6503  144.0549  158.2626 C.3     1  UNL1        0.1595
     20 O         142.0691  145.3217  158.8169 O.3     1  UNL1       -0.3508
     21 C         140.9784  145.2597  159.8448 C.3     1  UNL1        0.1595
     22 C         140.4689  143.9308  160.3183 C.3     1  UNL1        0.1049
     23 C         138.1676  140.1101  164.7928 C.3     1  UNL1        0.1056
     24 C         138.3833  138.8652  165.6014 C.3     1  UNL1        0.0226
     25 C         137.9109  138.8035  167.0237 C.3     1  UNL1        0.0020
     26 C         139.0714  137.6821  164.9876 C.3     1  UNL1        0.0020
@<TRIPOS>BOND
     1     1     2    1
     2     2     3   ar
     3     3    16    1
     4    16    17    1
     5    17    18    1
     6    18    19    1
     7    19    20    1
     8    20    21    1
     9    21    22    1
    10     3     4   ar
    11     4     5   ar
    12     5     7    1
    13     7     8   ar
    14     8     9   ar
    15     9    10   ar
    16    10    13    1
    17    13    14    1
    18    13    15    1
    19    10    11   ar
    20    11    12   ar
    21     5     6   ar
    22     6    23    1
    23    23    24    1
    24    24    25    1
    25    24    26    1
    26     6     2   ar
    27    22    17    1
    28    12     7   ar
@<TRIPOS>MOLECULE
*****
 26 28 0 0 0
SMALL
GASTEIGER

@<TRIPOS>ATOM
      1 C         144.0560  139.5023  161.1807 C.3     1  UNL1        0.0497
      2 C         143.0921  139.6347  162.3224 C.ar    1  UNL1        0.0348
      3 C         141.7369  138.9979  162.4106 C.ar    1  UNL1        0.0070
      4 C         141.1215  139.3969  163.7191 C.ar    1  UNL1        0.0154
      5 C         142.0964  140.2803  164.4396 C.ar    1  UNL1        0.0594
      6 N         143.3143  140.4273  163.5764 N.ar    1  UNL1       -0.3309
      7 C         141.8897  140.9067  165.7868 C.ar    1  UNL1        0.0158
      8 C         142.6369  140.3861  166.9786 C.ar    1  UNL1        0.0011
      9 C         142.4302  141.0125  168.3257 C.ar    1  UNL1       -0.0042
     10 C         141.4763  142.1596  168.4811 C.ar    1  UNL1       -0.0225
     11 C         140.7290  142.6803  167.2892 C.ar    1  UNL1       -0.0042
     12 C         140.9357  142.0538  165.9421 C.ar    1  UNL1        0.0011
     13 C         141.2696  142.7860  169.8282 C.3     1  UNL1        0.0224
     14 C         141.8937  142.1704  171.0453 C.3     1  UNL1        0.0047
     15 C         140.4387  144.0280  169.9583 C.3     1  UNL1        0.0047
     16 C         141.1076  138.1168  161.3725 C.3     1  UNL1        0.1004
     17 N         140.1257  138.6925  160.3954 N.3     1  UNL1       -0.2646
     18 C         140.4291  138.6710  158.9266 C.3     1  UNL1        0.1049
     19 C         139.4473  139.2466  157.9495 C.3     1  UNL1        0.1595
     20 O         138.1622  139.8437  158.4413 O.3     1  UNL1       -0.3508
     21 C         137.8588  139.8652  159.9101 C.3     1  UNL1        0.1595
     22 C         138.8406  139.2896  160.8871 C.3     1  UNL1        0.1049
     23 C         144.5394  141.2265  163.9088 C.3     1  UNL1        0.1056
     24 C         144.4704  142.7245  163.9458 C.3     1  UNL1        0.0226
     25 C         144.4870  143.4437  165.2621 C.3     1  UNL1        0.0020
     26 C         144.3849  143.5031  162.6666 C.3     1  UNL1        0.0020
@<TRIPOS>BOND
     1     1     2    1
     2     2     3   ar
     3     3    16    1
     4    16    17    1
     5    17    18    1
     6    18    19    1
     7    19    20    1
     8    20    21    1
     9    21    22    1
    10     3     4   ar
    11     4     5   ar
    12     5     7    1
    13     7     8   ar
    14     8     9   ar
    15     9    10   ar
    16    10    13    1
    17    13    14    1
    18    13    15    1
    19    10    11   ar
    20    11    12   ar
    21     5     6   ar
    22     6    23    1
    23    23    24    1
    24    24    25    1
    25    24    26    1
    26     6     2   ar
    27    22    17    1
    28    12     7   ar
@<TRIPOS>MOLECULE
*****
 26 28 0 0 0
SMALL
GASTEIGER

@<TRIPOS>ATOM
      1 C         137.8110  139.6375  161.1627 C.3     1  UNL1        0.0497
      2 C         138.9057  140.3384  161.9113 C.ar    1  UNL1        0.0348
      3 C         140.0698  141.0603  161.2999 C.ar    1  UNL1        0.0070
      4 C         140.9120  141.6085  162.4136 C.ar    1  UNL1        0.0154
      5 C         140.2685  141.2254  163.7132 C.ar    1  UNL1        0.0594
      6 N         139.0285  140.4404  163.4028 N.ar    1  UNL1       -0.3309
      7 C         140.7758  141.5672  165.0828 C.ar    1  UNL1        0.0158
      8 C         142.0418  140.9436  165.5909 C.ar    1  UNL1        0.0011
      9 C         142.5491  141.2854  166.9605 C.ar    1  UNL1       -0.0042
     10 C         141.7904  142.2509  167.8219 C.ar    1  UNL1       -0.0225
     11 C         140.5243  142.8745  167.3139 C.ar    1  UNL1       -0.0042
     12 C         140.0170  142.5327  165.9443 C.ar    1  UNL1        0.0011
     13 C         142.2977  142.5927  169.1915 C.3     1  UNL1        0.0224
     14 C         141.4052  143.3015  170.1666 C.3     1  UNL1        0.0047
     15 C         143.6976  142.2256  169.5860 C.3     1  UNL1        0.0047
     16 C         140.3435  141.2081  159.8326 C.3     1  UNL1        0.1004
     17 N         141.4374  140.4081  159.1894 N.3     1  UNL1       -0.2646
     18 C         141.2718  138.9298  158.9972 C.3     1  UNL1        0.1049
     19 C         142.3656  138.1299  158.3541 C.3     1  UNL1        0.1595
     20 O         143.6251  138.8084  157.9031 O.3     1  UNL1       -0.3508
     21 C         143.7907  140.2868  158.0953 C.3     1  UNL1        0.1595
     22 C         142.6969  141.0866  158.7384 C.3     1  UNL1        0.1049
     23 C         138.0781  139.8594  164.4074 C.3     1  UNL1        0.1056
     24 C         138.5451  138.7910  165.3511 C.3     1  UNL1        0.0226
     25 C         139.4696  137.7139  164.8662 C.3     1  UNL1        0.0020
     26 C         138.0875  138.7998  166.7795 C.3     1  UNL1        0.0020
@<TRIPOS>BOND
     1     1     2    1
     2     2     3   ar
     3     3    16    1
     4    16    17    1
     5    17    18    1
     6    18    19    1
     7    19    20    1
     8    20    21    1
     9    21    22    1
    10     3     4   ar
    11     4     5   ar
    12     5     7    1
    13     7     8   ar
    14     8     9   ar
    15     9    10   ar
    16    10    13    1
    17    13    14    1
    18    13    15    1
    19    10    11   ar
    20    11    12   ar
    21     5     6   ar
    22     6    23    1
    23    23    24    1
    24    24    25    1
    25    24    26    1
    26     6     2   ar
    27    22    17    1
    28    12     7   ar
@<TRIPOS>MOLECULE
*****
 26 28 0 0 0
SMALL
GASTEIGER

@<TRIPOS>ATOM
      1 C         140.2863  145.7302  160.0519 C.3     1  UNL1        0.0497
      2 C         141.0912  144.7641  160.8696 C.ar    1  UNL1        0.0348
      3 C         142.1256  143.8129  160.3448 C.ar    1  UNL1        0.0070
      4 C         142.6768  143.0404  161.5065 C.ar    1  UNL1        0.0154
      5 C         141.9831  143.5142  162.7492 C.ar    1  UNL1        0.0594
      6 N         141.0031  144.5795  162.3555 N.ar    1  UNL1       -0.3309
      7 C         142.2266  143.0110  164.1411 C.ar    1  UNL1        0.0158
      8 C         143.4881  143.3819  164.8628 C.ar    1  UNL1        0.0011
      9 C         143.7316  142.8787  166.2547 C.ar    1  UNL1       -0.0042
     10 C         142.7135  142.0047  166.9250 C.ar    1  UNL1       -0.0225
     11 C         141.4519  141.6337  166.2034 C.ar    1  UNL1       -0.0042
     12 C         141.2084  142.1369  164.8115 C.ar    1  UNL1        0.0011
     13 C         142.9570  141.5015  168.3170 C.3     1  UNL1        0.0224
     14 C         142.5862  140.0946  168.6815 C.3     1  UNL1        0.0047
     15 C         143.5713  142.4053  169.3445 C.3     1  UNL1        0.0047
     16 C         142.5366  143.6609  158.9103 C.3     1  UNL1        0.1004
     17 N         143.1991  142.3963  158.4498 N.3     1  UNL1       -0.2646
     18 C         144.5604  142.4484  157.8222 C.3     1  UNL1        0.1049
     19 C         145.2228  141.1838  157.3618 C.3     1  UNL1        0.1595
     20 O         144.5239  139.8672  157.5290 O.3     1  UNL1       -0.3508
     21 C         143.1625  139.8151  158.1566 C.3     1  UNL1        0.1595
     22 C         142.5001  141.0797  158.6170 C.3     1  UNL1        0.1049
     23 C         140.0946  145.3286  163.2848 C.3     1  UNL1        0.1056
     24 C         138.8849  144.6520  163.8581 C.3     1  UNL1        0.0226
     25 C         138.6058  144.7352  165.3295 C.3     1  UNL1        0.0020
     26 C         137.9542  143.8924  162.9599 C.3     1  UNL1        0.0020
@<TRIPOS>BOND
     1     1     2    1
     2     2     3   ar
     3     3    16    1
     4    16    17    1
     5    17    18    1
     6    18    19    1
     7    19    20    1
     8    20    21    1
     9    21    22    1
    10     3     4   ar
    11     4     5   ar
    12     5     7    1
    13     7     8   ar
    14     8     9   ar
    15     9    10   ar
    16    10    13    1
    17    13    14    1
    18    13    15    1
    19    10    11   ar
    20    11    12   ar
    21     5     6   ar
    22     6    23    1
    23    23    24    1
    24    24    25    1
    25    24    26    1
    26     6     2   ar
    27    22    17    1
    28    12     7   ar
@<TRIPOS>MOLECULE
*****
 26 28 0 0 0
SMALL
GASTEIGER

@<TRIPOS>ATOM
      1 C         137.8558  139.5204  160.9401 C.3     1  UNL1        0.0497
      2 C         138.9087  140.2660  161.7051 C.ar    1  UNL1        0.0348
      3 C         140.0370  141.0560  161.1111 C.ar    1  UNL1        0.0070
      4 C         140.8438  141.6308  162.2375 C.ar    1  UNL1        0.0154
      5 C         140.2141  141.1961  163.5277 C.ar    1  UNL1        0.0594
      6 N         139.0181  140.3526  163.1986 N.ar    1  UNL1       -0.3309
      7 C         140.6958  141.5439  164.9050 C.ar    1  UNL1        0.0158
      8 C         141.9028  140.8581  165.4728 C.ar    1  UNL1        0.0011
      9 C         142.3845  141.2058  166.8501 C.ar    1  UNL1       -0.0042
     10 C         141.6591  142.2394  167.6596 C.ar    1  UNL1       -0.0225
     11 C         140.4520  142.9253  167.0919 C.ar    1  UNL1       -0.0042
     12 C         139.9703  142.5775  165.7145 C.ar    1  UNL1        0.0011
     13 C         142.1407  142.5871  169.0370 C.3     1  UNL1        0.0224
     14 C         141.2562  143.3630  169.9672 C.3     1  UNL1        0.0047
     15 C         143.5070  142.1589  169.4841 C.3     1  UNL1        0.0047
     16 C         140.3105  141.2389  159.6477 C.3     1  UNL1        0.1004
     17 N         141.1173  142.4125  159.1765 N.3     1  UNL1       -0.2646
     18 C         142.5259  142.2119  158.7013 C.3     1  UNL1        0.1049
     19 C         143.3326  143.3854  158.2301 C.3     1  UNL1        0.1595
     20 O         142.7308  144.7594  158.2340 O.3     1  UNL1       -0.3508
     21 C         141.3223  144.9599  158.7091 C.3     1  UNL1        0.1595
     22 C         140.5155  143.7864  159.1803 C.3     1  UNL1        0.1049
     23 C         138.0938  139.7088  164.1892 C.3     1  UNL1        0.1056
     24 C         138.6173  138.6742  165.1409 C.3     1  UNL1        0.0226
     25 C         139.7044  137.7367  164.7059 C.3     1  UNL1        0.0020
     26 C         138.0536  138.5773  166.5276 C.3     1  UNL1        0.0020
@<TRIPOS>BOND
     1     1     2    1
     2     2     3   ar
     3     3    16    1
     4    16    17    1
     5    17    18    1
     6    18    19    1
     7    19    20    1
     8    20    21    1
     9    21    22    1
    10     3     4   ar
    11     4     5   ar
    12     5     7    1
    13     7     8   ar
    14     8     9   ar
    15     9    10   ar
    16    10    13    1
    17    13    14    1
    18    13    15    1
    19    10    11   ar
    20    11    12   ar
    21     5     6   ar
    22     6    23    1
    23    23    24    1
    24    24    25    1
    25    24    26    1
    26     6     2   ar
    27    22    17    1
    28    12     7   ar
@<TRIPOS>MOLECULE
*****
 26 28 0 0 0
SMALL
GASTEIGER

@<TRIPOS>ATOM
      1 C         141.9635  139.1779  160.6527 C.3     1  UNL1        0.0497
      2 C         141.3139  139.9854  161.7371 C.ar    1  UNL1        0.0348
      3 C         140.4204  141.1735  161.5368 C.ar    1  UNL1        0.0070
      4 C         139.9981  141.6689  162.8882 C.ar    1  UNL1        0.0154
      5 C         140.6306  140.7871  163.9237 C.ar    1  UNL1        0.0594
      6 N         141.4438  139.7466  163.2123 N.ar    1  UNL1       -0.3309
      7 C         140.4769  140.9220  165.4097 C.ar    1  UNL1        0.0158
      8 C         141.0696  142.1021  166.1209 C.ar    1  UNL1        0.0011
      9 C         140.9158  142.2371  167.6069 C.ar    1  UNL1       -0.0042
     10 C         140.1694  141.1919  168.3816 C.ar    1  UNL1       -0.0225
     11 C         139.5767  140.0117  167.6704 C.ar    1  UNL1       -0.0042
     12 C         139.7304  139.8768  166.1844 C.ar    1  UNL1        0.0011
     13 C         140.0157  141.3268  169.8676 C.3     1  UNL1        0.0224
     14 C         139.7886  142.6777  170.4785 C.3     1  UNL1        0.0047
     15 C         140.0892  140.1107  170.7427 C.3     1  UNL1        0.0047
     16 C         140.0196  141.7626  160.2169 C.3     1  UNL1        0.1004
     17 N         140.8339  142.8666  159.6101 N.3     1  UNL1       -0.2646
     18 C         140.3401  144.2818  159.6682 C.3     1  UNL1        0.1049
     19 C         141.1544  145.3858  159.0614 C.3     1  UNL1        0.1595
     20 O         142.4624  145.0745  158.3965 O.3     1  UNL1       -0.3508
     21 C         142.9562  143.6593  158.3383 C.3     1  UNL1        0.1595
     22 C         142.1419  142.5554  158.9451 C.3     1  UNL1        0.1049
     23 C         142.2461  138.6583  163.8620 C.3     1  UNL1        0.1056
     24 C         143.3730  139.0082  164.7881 C.3     1  UNL1        0.0226
     25 C         144.5167  139.8443  164.2953 C.3     1  UNL1        0.0020
     26 C         143.3561  138.5220  166.2070 C.3     1  UNL1        0.0020
@<TRIPOS>BOND
     1     1     2    1
     2     2     3   ar
     3     3    16    1
     4    16    17    1
     5    17    18    1
     6    18    19    1
     7    19    20    1
     8    20    21    1
     9    21    22    1
    10     3     4   ar
    11     4     5   ar
    12     5     7    1
    13     7     8   ar
    14     8     9   ar
    15     9    10   ar
    16    10    13    1
    17    13    14    1
    18    13    15    1
    19    10    11   ar
    20    11    12   ar
    21     5     6   ar
    22     6    23    1
    23    23    24    1
    24    24    25    1
    25    24    26    1
    26     6     2   ar
    27    22    17    1
    28    12     7   ar
@<TRIPOS>MOLECULE
*****
 26 28 0 0 0
SMALL
GASTEIGER

@<TRIPOS>ATOM
      1 C         139.7697  137.9267  161.6702 C.3     1  UNL1        0.0497
      2 C         139.5697  138.9585  162.7405 C.ar    1  UNL1        0.0348
      3 C         138.6007  140.1025  162.6923 C.ar    1  UNL1        0.0070
      4 C         138.7357  140.8784  163.9689 C.ar    1  UNL1        0.0154
      5 C         139.7881  140.2140  164.8061 C.ar    1  UNL1        0.0594
      6 N         140.3035  139.0273  164.0469 N.ar    1  UNL1       -0.3309
      7 C         140.2449  140.6581  166.1640 C.ar    1  UNL1        0.0158
      8 C         139.7203  139.9754  167.3923 C.ar    1  UNL1        0.0011
      9 C         140.1771  140.4196  168.7502 C.ar    1  UNL1       -0.0042
     10 C         141.1585  141.5463  168.8799 C.ar    1  UNL1       -0.0225
     11 C         141.6833  142.2291  167.6517 C.ar    1  UNL1       -0.0042
     12 C         141.2265  141.7849  166.2938 C.ar    1  UNL1        0.0011
     13 C         141.6154  141.9905  170.2379 C.3     1  UNL1        0.0224
     14 C         142.6583  143.0609  170.3654 C.3     1  UNL1        0.0047
     15 C         141.0292  141.3641  171.4684 C.3     1  UNL1        0.0047
     16 C         137.6616  140.4156  161.5653 C.3     1  UNL1        0.1004
     17 N         138.1853  141.0312  160.3017 N.3     1  UNL1       -0.2646
     18 C         138.2356  140.2236  159.0387 C.3     1  UNL1        0.1049
     19 C         138.7593  140.8392  157.7751 C.3     1  UNL1        0.1595
     20 O         139.2327  142.2626  157.7745 O.3     1  UNL1       -0.3508
     21 C         139.1824  143.0703  159.0375 C.3     1  UNL1        0.1595
     22 C         138.6587  142.4546  160.3010 C.3     1  UNL1        0.1049
     23 C         141.3663  138.0766  164.5123 C.3     1  UNL1        0.1056
     24 C         142.7466  138.5822  164.8106 C.3     1  UNL1        0.0226
     25 C         143.3179  138.4339  166.1896 C.3     1  UNL1        0.0020
     26 C         143.5556  139.2361  163.7299 C.3     1  UNL1        0.0020
@<TRIPOS>BOND
     1     1     2    1
     2     2     3   ar
     3     3    16    1
     4    16    17    1
     5    17    18    1
     6    18    19    1
     7    19    20    1
     8    20    21    1
     9    21    22    1
    10     3     4   ar
    11     4     5   ar
    12     5     7    1
    13     7     8   ar
    14     8     9   ar
    15     9    10   ar
    16    10    13    1
    17    13    14    1
    18    13    15    1
    19    10    11   ar
    20    11    12   ar
    21     5     6   ar
    22     6    23    1
    23    23    24    1
    24    24    25    1
    25    24    26    1
    26     6     2   ar
    27    22    17    1
    28    12     7   ar
