@<TRIPOS>MOLECULE
*****
 28 30 0 0 0
SMALL
GASTEIGER

@<TRIPOS>ATOM
      1 C         139.7930  137.8287  162.6976 C.3     1  UNL1        0.0370
      2 C         139.5386  138.3472  161.3131 C.3     1  UNL1        0.0204
      3 C         140.8531  138.4115  160.5935 C.3     1  UNL1        0.0722
      4 N         141.9199  137.9328  161.5330 N.3     1  UNL1       -0.2723
      5 C         141.2648  137.5726  162.8334 C.3     1  UNL1        0.0738
      6 C         138.7574  137.6055  163.7595 C.3     1  UNL1        0.0912
      7 C         138.7037  139.4108  165.6272 C.2     1  UNL1        0.2833
      8 O         138.0983  140.3888  164.6644 O.2     1  UNL1       -0.2667
      9 N         139.0333  138.0192  165.1748 N.am    1  UNL1       -0.2982
     10 H         139.4306  137.3772  165.8067 H       1  UNL1        0.1498
     11 C         139.8401  141.0184  168.9723 C.ar    1  UNL1        0.1005
     12 C         139.8473  140.9696  167.4730 C.ar    1  UNL1        0.0629
     13 C         138.9795  139.8244  167.0423 C.ar    1  UNL1        0.2295
     14 O         138.4360  139.1655  168.2754 O.2     1  UNL1       -0.3490
     15 N         138.9679  139.9034  169.4682 N.ar    1  UNL1       -0.0812
     16 C         140.4619  143.4764  169.5392 C.3     1  UNL1        0.0064
     17 C         140.5759  142.0084  169.8257 C.3     1  UNL1        0.0436
     18 C         141.4257  141.5305  170.9657 C.3     1  UNL1        0.0064
     19 C         143.3847  137.8320  161.2261 C.3     1  UNL1        0.0768
     20 C         144.1845  139.0747  160.9691 C.3     1  UNL1        0.0437
     21 C         144.2986  140.1264  162.0326 C.ar    1  UNL1       -0.0199
     22 C         144.4679  139.7262  163.4682 C.ar    1  UNL1       -0.0033
     23 C         144.5820  140.7780  164.5315 C.ar    1  UNL1        0.0119
     24 C         144.5268  142.2300  164.1592 C.ar    1  UNL1        0.0682
     25 CL        144.6409  143.2818  165.2227 Cl      1  UNL1       -0.0814
     26 C         144.3574  142.6302  162.7236 C.ar    1  UNL1        0.0679
     27 CL        144.3021  144.0822  162.3513 Cl      1  UNL1       -0.0814
     28 C         144.2433  141.5785  161.6603 C.ar    1  UNL1        0.0080
@<TRIPOS>BOND
     1    16    17    1
     2    17    18    1
     3    17    11    1
     4    11    12   ar
     5    12    13   ar
     6    13     7    1
     7     7     8    2
     8     7     9   am
     9     9     6    1
    10     1     6    1
    11     1     2    1
    12     2     3    1
    13     3     4    1
    14     4    19    1
    15    19    20    1
    16    20    21    1
    17    21    22   ar
    18    22    23   ar
    19    23    24   ar
    20    24    25    1
    21    24    26   ar
    22    26    27    1
    23    26    28   ar
    24     4     5    1
    25    13    14   ar
    26    14    15   ar
    27    15    11   ar
    28     5     1    1
    29    28    21   ar
    30     9    10    1
@<TRIPOS>MOLECULE
*****
 28 30 0 0 0
SMALL
GASTEIGER

@<TRIPOS>ATOM
      1 C         139.1492  138.4814  163.2062 C.3     1  UNL1        0.0370
      2 C         140.0501  137.8176  162.2074 C.3     1  UNL1        0.0204
      3 C         139.9617  138.5849  160.9215 C.3     1  UNL1        0.0722
      4 N         139.0061  139.7229  161.1256 N.3     1  UNL1       -0.2723
      5 C         138.5039  139.6591  162.5376 C.3     1  UNL1        0.0738
      6 C         138.9317  138.0444  164.6246 C.3     1  UNL1        0.0912
      7 C         138.5538  139.0665  166.9831 C.2     1  UNL1        0.2833
      8 O         137.2343  138.3594  167.0780 O.2     1  UNL1       -0.2667
      9 N         139.4025  138.9090  165.7563 N.am    1  UNL1       -0.2982
     10 H         140.2685  139.3731  165.6940 H       1  UNL1        0.1498
     11 C         140.1779  141.6511  169.3804 C.ar    1  UNL1        0.1005
     12 C         139.9953  141.0696  168.0097 C.ar    1  UNL1        0.0629
     13 C         139.0245  139.9310  168.1148 C.ar    1  UNL1        0.2295
     14 O         138.6071  139.8087  169.5503 O.2     1  UNL1       -0.3490
     15 N         139.3199  140.8718  170.3326 N.ar    1  UNL1       -0.0812
     16 C         142.5503  142.6239  169.7991 C.3     1  UNL1        0.0064
     17 C         141.0630  142.8085  169.7364 C.3     1  UNL1        0.0436
     18 C         140.4609  144.1508  170.0297 C.3     1  UNL1        0.0064
     19 C         138.6204  140.7455  160.0981 C.3     1  UNL1        0.0768
     20 C         138.2134  142.1238  160.5277 C.3     1  UNL1        0.0437
     21 C         139.1438  142.9554  161.3601 C.ar    1  UNL1       -0.0199
     22 C         140.5404  143.2232  160.8830 C.ar    1  UNL1       -0.0033
     23 C         141.4708  144.0547  161.7155 C.ar    1  UNL1        0.0119
     24 C         141.0044  144.6185  163.0249 C.ar    1  UNL1        0.0682
     25 CL        141.9348  145.4501  163.8573 Cl      1  UNL1       -0.0814
     26 C         139.6078  144.3507  163.5020 C.ar    1  UNL1        0.0679
     27 CL        139.1415  144.9145  164.8114 Cl      1  UNL1       -0.0814
     28 C         138.6775  143.5192  162.6696 C.ar    1  UNL1        0.0080
@<TRIPOS>BOND
     1    16    17    1
     2    17    18    1
     3    17    11    1
     4    11    12   ar
     5    12    13   ar
     6    13     7    1
     7     7     8    2
     8     7     9   am
     9     9     6    1
    10     1     6    1
    11     1     2    1
    12     2     3    1
    13     3     4    1
    14     4    19    1
    15    19    20    1
    16    20    21    1
    17    21    22   ar
    18    22    23   ar
    19    23    24   ar
    20    24    25    1
    21    24    26   ar
    22    26    27    1
    23    26    28   ar
    24     4     5    1
    25    13    14   ar
    26    14    15   ar
    27    15    11   ar
    28     5     1    1
    29    28    21   ar
    30     9    10    1
@<TRIPOS>MOLECULE
*****
 28 30 0 0 0
SMALL
GASTEIGER

@<TRIPOS>ATOM
      1 C         138.5489  141.3089  162.2242 C.3     1  UNL1        0.0370
      2 C         138.0940  142.6600  161.7575 C.3     1  UNL1        0.0204
      3 C         139.1195  143.1889  160.7992 C.3     1  UNL1        0.0722
      4 N         140.2083  142.1648  160.6735 N.3     1  UNL1       -0.2723
      5 C         139.8557  141.0029  161.5542 C.3     1  UNL1        0.0738
      6 C         137.8243  140.4200  163.1911 C.3     1  UNL1        0.0912
      7 C         139.0088  139.8397  165.4294 C.2     1  UNL1        0.2833
      8 O         139.8706  138.8416  164.7146 O.2     1  UNL1       -0.2667
      9 N         137.9857  140.6290  164.6677 N.am    1  UNL1       -0.2982
     10 H         137.4201  141.2841  165.1368 H       1  UNL1        0.1498
     11 C         139.8571  140.9640  169.0463 C.ar    1  UNL1        0.1005
     12 C         139.9747  141.1323  167.5603 C.ar    1  UNL1        0.0629
     13 C         139.1701  140.0487  166.9059 C.ar    1  UNL1        0.2295
     14 O         138.5552  139.2106  167.9874 O.2     1  UNL1       -0.3490
     15 N         138.9798  139.7764  169.3102 N.ar    1  UNL1       -0.0812
     16 C         141.3867  141.2172  171.1310 C.3     1  UNL1        0.0064
     17 C         140.5033  141.8311  170.0857 C.3     1  UNL1        0.0436
     18 C         140.2661  143.3123  170.0799 C.3     1  UNL1        0.0064
     19 C         141.4344  142.2820  159.8174 C.3     1  UNL1        0.0768
     20 C         142.4588  143.3366  160.1147 C.3     1  UNL1        0.0437
     21 C         143.0321  143.4571  161.4957 C.ar    1  UNL1       -0.0199
     22 C         142.5020  144.4952  162.4398 C.ar    1  UNL1       -0.0033
     23 C         143.0753  144.6158  163.8206 C.ar    1  UNL1        0.0119
     24 C         144.1787  143.6982  164.2573 C.ar    1  UNL1        0.0682
     25 CL        144.7520  143.8188  165.6383 Cl      1  UNL1       -0.0814
     26 C         144.7087  142.6601  163.3132 C.ar    1  UNL1        0.0679
     27 CL        145.8120  141.7426  163.7500 Cl      1  UNL1       -0.0814
     28 C         144.1354  142.5396  161.9324 C.ar    1  UNL1        0.0080
@<TRIPOS>BOND
     1    16    17    1
     2    17    18    1
     3    17    11    1
     4    11    12   ar
     5    12    13   ar
     6    13     7    1
     7     7     8    2
     8     7     9   am
     9     9     6    1
    10     1     6    1
    11     1     2    1
    12     2     3    1
    13     3     4    1
    14     4    19    1
    15    19    20    1
    16    20    21    1
    17    21    22   ar
    18    22    23   ar
    19    23    24   ar
    20    24    25    1
    21    24    26   ar
    22    26    27    1
    23    26    28   ar
    24     4     5    1
    25    13    14   ar
    26    14    15   ar
    27    15    11   ar
    28     5     1    1
    29    28    21   ar
    30     9    10    1
@<TRIPOS>MOLECULE
*****
 28 30 0 0 0
SMALL
GASTEIGER

@<TRIPOS>ATOM
      1 C         139.5939  138.5528  161.2123 C.3     1  UNL1        0.0370
      2 C         139.5310  139.5881  160.1286 C.3     1  UNL1        0.0204
      3 C         140.9136  139.7634  159.5741 C.3     1  UNL1        0.0722
      4 N         141.8312  138.8365  160.3151 N.3     1  UNL1       -0.2723
      5 C         141.0156  138.0883  161.3275 C.3     1  UNL1        0.0738
      6 C         138.4382  138.0673  162.0361 C.3     1  UNL1        0.0912
      7 C         138.3603  139.3657  164.2851 C.2     1  UNL1        0.2833
      8 O         138.1041  140.6418  163.5395 O.2     1  UNL1       -0.2667
      9 N         138.5274  138.0785  163.5334 N.am    1  UNL1       -0.2982
     10 H         138.6956  137.2409  164.0228 H       1  UNL1        0.1498
     11 C         139.2097  139.8096  168.0464 C.ar    1  UNL1        0.1005
     12 C         139.5100  140.0558  166.5974 C.ar    1  UNL1        0.0629
     13 C         138.4495  139.3769  165.7824 C.ar    1  UNL1        0.2295
     14 O         137.4937  138.7111  166.7275 O.2     1  UNL1       -0.3490
     15 N         137.9636  138.9785  168.1268 N.ar    1  UNL1       -0.0812
     16 C         139.4718  141.3980  170.0855 C.3     1  UNL1        0.0064
     17 C         140.0142  140.3071  169.2104 C.3     1  UNL1        0.0436
     18 C         141.3613  139.7137  169.4995 C.3     1  UNL1        0.0064
     19 C         143.3055  138.6845  160.0841 C.3     1  UNL1        0.0768
     20 C         144.2764  139.5294  160.8545 C.3     1  UNL1        0.0437
     21 C         143.9423  139.9748  162.2474 C.ar    1  UNL1       -0.0199
     22 C         143.4933  141.3841  162.4967 C.ar    1  UNL1       -0.0033
     23 C         143.1593  141.8294  163.8896 C.ar    1  UNL1        0.0119
     24 C         143.2744  140.8655  165.0331 C.ar    1  UNL1        0.0682
     25 CL        142.9403  141.3109  166.4260 Cl      1  UNL1       -0.0814
     26 C         143.7234  139.4562  164.7837 C.ar    1  UNL1        0.0679
     27 CL        143.8385  138.4922  165.9272 Cl      1  UNL1       -0.0814
     28 C         144.0574  139.0108  163.3909 C.ar    1  UNL1        0.0080
@<TRIPOS>BOND
     1    16    17    1
     2    17    18    1
     3    17    11    1
     4    11    12   ar
     5    12    13   ar
     6    13     7    1
     7     7     8    2
     8     7     9   am
     9     9     6    1
    10     1     6    1
    11     1     2    1
    12     2     3    1
    13     3     4    1
    14     4    19    1
    15    19    20    1
    16    20    21    1
    17    21    22   ar
    18    22    23   ar
    19    23    24   ar
    20    24    25    1
    21    24    26   ar
    22    26    27    1
    23    26    28   ar
    24     4     5    1
    25    13    14   ar
    26    14    15   ar
    27    15    11   ar
    28     5     1    1
    29    28    21   ar
    30     9    10    1
@<TRIPOS>MOLECULE
*****
 28 30 0 0 0
SMALL
GASTEIGER

@<TRIPOS>ATOM
      1 C         138.8363  144.3705  162.9400 C.3     1  UNL1        0.0370
      2 C         138.1426  144.2490  164.2644 C.3     1  UNL1        0.0204
      3 C         137.5911  142.8583  164.3729 C.3     1  UNL1        0.0722
      4 N         137.9439  142.1203  163.1157 N.3     1  UNL1       -0.2723
      5 C         138.7135  143.0548  162.2300 C.3     1  UNL1        0.0738
      6 C         139.5309  145.5930  162.4173 C.3     1  UNL1        0.0912
      7 C         141.0149  145.3389  160.2999 C.2     1  UNL1        0.2833
      8 O         142.1027  144.7317  161.1353 O.2     1  UNL1       -0.2667
      9 N         139.7289  145.7695  160.9409 N.am    1  UNL1       -0.2982
     10 H         139.0149  146.1680  160.3927 H       1  UNL1        0.1498
     11 C         140.7881  145.9413  156.4723 C.ar    1  UNL1        0.1005
     12 C         140.1488  145.8687  157.8273 C.ar    1  UNL1        0.0629
     13 C         141.2129  145.5154  158.8236 C.ar    1  UNL1        0.2295
     14 O         142.5099  145.3696  158.0844 O.2     1  UNL1       -0.3490
     15 N         142.2474  145.6328  156.6311 N.ar    1  UNL1       -0.0812
     16 C         139.7933  147.6925  154.8311 C.3     1  UNL1        0.0064
     17 C         140.0906  146.2654  155.1845 C.3     1  UNL1        0.0436
     18 C         139.6903  145.1623  154.2500 C.3     1  UNL1        0.0064
     19 C         137.5894  140.6975  162.7995 C.3     1  UNL1        0.0768
     20 C         138.4154  139.5769  163.3579 C.3     1  UNL1        0.0437
     21 C         138.9866  139.6832  164.7409 C.ar    1  UNL1       -0.0199
     22 C         138.1508  139.3079  165.9285 C.ar    1  UNL1       -0.0033
     23 C         138.7221  139.4142  167.3113 C.ar    1  UNL1        0.0119
     24 C         140.1292  139.8959  167.5065 C.ar    1  UNL1        0.0682
     25 CL        140.7004  140.0022  168.8895 Cl      1  UNL1       -0.0814
     26 C         140.9650  140.2712  166.3189 C.ar    1  UNL1        0.0679
     27 CL        142.3721  140.7528  166.5141 Cl      1  UNL1       -0.0814
     28 C         140.3937  140.1648  164.9361 C.ar    1  UNL1        0.0080
@<TRIPOS>BOND
     1    16    17    1
     2    17    18    1
     3    17    11    1
     4    11    12   ar
     5    12    13   ar
     6    13     7    1
     7     7     8    2
     8     7     9   am
     9     9     6    1
    10     1     6    1
    11     1     2    1
    12     2     3    1
    13     3     4    1
    14     4    19    1
    15    19    20    1
    16    20    21    1
    17    21    22   ar
    18    22    23   ar
    19    23    24   ar
    20    24    25    1
    21    24    26   ar
    22    26    27    1
    23    26    28   ar
    24     4     5    1
    25    13    14   ar
    26    14    15   ar
    27    15    11   ar
    28     5     1    1
    29    28    21   ar
    30     9    10    1
@<TRIPOS>MOLECULE
*****
 28 30 0 0 0
SMALL
GASTEIGER

@<TRIPOS>ATOM
      1 C         143.0806  143.5805  163.3300 C.3     1  UNL1        0.0370
      2 C         144.0499  143.9154  164.4248 C.3     1  UNL1        0.0204
      3 C         144.8132  142.6698  164.7651 C.3     1  UNL1        0.0722
      4 N         144.3157  141.5651  163.8807 N.3     1  UNL1       -0.2723
      5 C         143.2449  142.1279  162.9937 C.3     1  UNL1        0.0738
      6 C         142.1164  144.5313  162.6848 C.3     1  UNL1        0.0912
      7 C         141.0105  145.1559  160.4184 C.2     1  UNL1        0.2833
      8 O         139.6620  145.1516  161.0752 O.2     1  UNL1       -0.2667
      9 N         142.2377  144.8458  161.2232 N.am    1  UNL1       -0.2982
     10 H         143.1228  144.8486  160.7921 H       1  UNL1        0.1498
     11 C         140.5775  146.0625  156.6692 C.ar    1  UNL1        0.1005
     12 C         140.0039  145.8302  158.0358 C.ar    1  UNL1        0.0629
     13 C         141.1318  145.4704  158.9568 C.ar    1  UNL1        0.2295
     14 O         142.4024  145.4803  158.1596 O.2     1  UNL1       -0.3490
     15 N         142.0597  145.8462  156.7458 N.ar    1  UNL1       -0.0812
     16 C         140.1922  147.6641  154.6602 C.3     1  UNL1        0.0064
     17 C         139.8043  146.4440  155.4418 C.3     1  UNL1        0.0436
     18 C         138.6433  145.6053  154.9959 C.3     1  UNL1        0.0064
     19 C         144.8034  140.1465  163.8827 C.3     1  UNL1        0.0768
     20 C         144.2667  139.1704  164.8873 C.3     1  UNL1        0.0437
     21 C         142.8079  139.1793  165.2364 C.ar    1  UNL1       -0.0199
     22 C         142.3254  139.9601  166.4228 C.ar    1  UNL1       -0.0033
     23 C         140.8667  139.9690  166.7719 C.ar    1  UNL1        0.0119
     24 C         139.8904  139.1969  165.9347 C.ar    1  UNL1        0.0682
     25 CL        138.4316  139.2058  166.2839 Cl      1  UNL1       -0.0814
     26 C         140.3729  138.4161  164.7484 C.ar    1  UNL1        0.0679
     27 CL        139.3967  137.6440  163.9112 Cl      1  UNL1       -0.0814
     28 C         141.8317  138.4072  164.3992 C.ar    1  UNL1        0.0080
@<TRIPOS>BOND
     1    16    17    1
     2    17    18    1
     3    17    11    1
     4    11    12   ar
     5    12    13   ar
     6    13     7    1
     7     7     8    2
     8     7     9   am
     9     9     6    1
    10     1     6    1
    11     1     2    1
    12     2     3    1
    13     3     4    1
    14     4    19    1
    15    19    20    1
    16    20    21    1
    17    21    22   ar
    18    22    23   ar
    19    23    24   ar
    20    24    25    1
    21    24    26   ar
    22    26    27    1
    23    26    28   ar
    24     4     5    1
    25    13    14   ar
    26    14    15   ar
    27    15    11   ar
    28     5     1    1
    29    28    21   ar
    30     9    10    1
@<TRIPOS>MOLECULE
*****
 28 30 0 0 0
SMALL
GASTEIGER

@<TRIPOS>ATOM
      1 C         138.5920  139.7248  163.9210 C.3     1  UNL1        0.0370
      2 C         138.8443  138.2735  164.2046 C.3     1  UNL1        0.0204
      3 C         139.5636  138.1760  165.5172 C.3     1  UNL1        0.0722
      4 N         139.7559  139.5669  166.0449 N.3     1  UNL1       -0.2723
      5 C         139.1555  140.5241  165.0584 C.3     1  UNL1        0.0738
      6 C         137.8981  140.2793  162.7122 C.3     1  UNL1        0.0912
      7 C         138.3289  142.7868  162.1862 C.2     1  UNL1        0.2833
      8 O         137.4253  143.1793  163.3173 O.2     1  UNL1       -0.2667
      9 N         138.5653  141.3368  161.8836 N.am    1  UNL1       -0.2982
     10 H         139.1583  141.0791  161.1412 H       1  UNL1        0.1498
     11 C         140.2205  144.9523  159.5790 C.ar    1  UNL1        0.1005
     12 C         139.7082  143.6255  160.0558 C.ar    1  UNL1        0.0629
     13 C         138.9960  143.8442  161.3576 C.ar    1  UNL1        0.2295
     14 O         139.0681  145.3062  161.6854 O.2     1  UNL1       -0.3490
     15 N         139.8249  145.9910  160.5861 N.ar    1  UNL1       -0.0812
     16 C         140.4688  146.1588  157.2915 C.3     1  UNL1        0.0064
     17 C         140.9928  145.1973  158.3166 C.3     1  UNL1        0.0436
     18 C         142.2891  144.4807  158.0794 C.3     1  UNL1        0.0064
     19 C         140.4303  139.9359  167.3330 C.3     1  UNL1        0.0768
     20 C         141.9062  139.7227  167.4947 C.3     1  UNL1        0.0437
     21 C         142.8539  140.2024  166.4355 C.ar    1  UNL1       -0.0199
     22 C         143.5248  139.2155  165.5267 C.ar    1  UNL1       -0.0033
     23 C         144.4724  139.6952  164.4675 C.ar    1  UNL1        0.0119
     24 C         144.7490  141.1618  164.3171 C.ar    1  UNL1        0.0682
     25 CL        145.6967  141.6415  163.2578 Cl      1  UNL1       -0.0814
     26 C         144.0781  142.1487  165.2258 C.ar    1  UNL1        0.0679
     27 CL        144.3547  143.6152  165.0753 Cl      1  UNL1       -0.0814
     28 C         143.1305  141.6690  166.2850 C.ar    1  UNL1        0.0080
@<TRIPOS>BOND
     1    16    17    1
     2    17    18    1
     3    17    11    1
     4    11    12   ar
     5    12    13   ar
     6    13     7    1
     7     7     8    2
     8     7     9   am
     9     9     6    1
    10     1     6    1
    11     1     2    1
    12     2     3    1
    13     3     4    1
    14     4    19    1
    15    19    20    1
    16    20    21    1
    17    21    22   ar
    18    22    23   ar
    19    23    24   ar
    20    24    25    1
    21    24    26   ar
    22    26    27    1
    23    26    28   ar
    24     4     5    1
    25    13    14   ar
    26    14    15   ar
    27    15    11   ar
    28     5     1    1
    29    28    21   ar
    30     9    10    1
@<TRIPOS>MOLECULE
*****
 28 30 0 0 0
SMALL
GASTEIGER

@<TRIPOS>ATOM
      1 C         142.3404  139.0697  162.4628 C.3     1  UNL1        0.0370
      2 C         142.3218  138.8586  160.9778 C.3     1  UNL1        0.0204
      3 C         140.9346  138.4435  160.5860 C.3     1  UNL1        0.0722
      4 N         140.0959  138.3980  161.8287 N.3     1  UNL1       -0.2723
      5 C         140.9646  138.7850  162.9887 C.3     1  UNL1        0.0738
      6 C         143.5264  139.4914  163.2787 C.3     1  UNL1        0.0912
      7 C         143.0811  139.2186  165.8237 C.2     1  UNL1        0.2833
      8 O         143.0373  137.7286  165.6563 O.2     1  UNL1       -0.2667
      9 N         143.3256  140.1000  164.6349 N.am    1  UNL1       -0.2982
     10 H         143.3544  141.0779  164.7447 H       1  UNL1        0.1498
     11 C         142.3646  141.4094  168.9466 C.ar    1  UNL1        0.1005
     12 C         142.4277  141.2298  167.4586 C.ar    1  UNL1        0.0629
     13 C         142.8803  139.8272  167.1799 C.ar    1  UNL1        0.2295
     14 O         143.0970  139.1399  168.4954 O.2     1  UNL1       -0.3490
     15 N         142.7782  140.1179  169.5873 N.ar    1  UNL1       -0.0812
     16 C         142.8959  143.2971  170.6508 C.3     1  UNL1        0.0064
     17 C         141.9591  142.6610  169.6671 C.3     1  UNL1        0.0436
     18 C         140.6167  143.2765  169.4039 C.3     1  UNL1        0.0064
     19 C         138.6434  138.0301  161.8992 C.3     1  UNL1        0.0768
     20 C         137.5959  139.0362  161.5247 C.3     1  UNL1        0.0437
     21 C         137.8312  140.4952  161.7820 C.ar    1  UNL1       -0.0199
     22 C         138.3094  141.3847  160.6730 C.ar    1  UNL1       -0.0033
     23 C         138.5447  142.8436  160.9303 C.ar    1  UNL1        0.0119
     24 C         138.3018  143.4129  162.2966 C.ar    1  UNL1        0.0682
     25 CL        138.5372  144.8719  162.5539 Cl      1  UNL1       -0.0814
     26 C         137.8236  142.5234  163.4057 C.ar    1  UNL1        0.0679
     27 CL        137.5807  143.0927  164.7720 Cl      1  UNL1       -0.0814
     28 C         137.5883  141.0645  163.1483 C.ar    1  UNL1        0.0080
@<TRIPOS>BOND
     1    16    17    1
     2    17    18    1
     3    17    11    1
     4    11    12   ar
     5    12    13   ar
     6    13     7    1
     7     7     8    2
     8     7     9   am
     9     9     6    1
    10     1     6    1
    11     1     2    1
    12     2     3    1
    13     3     4    1
    14     4    19    1
    15    19    20    1
    16    20    21    1
    17    21    22   ar
    18    22    23   ar
    19    23    24   ar
    20    24    25    1
    21    24    26   ar
    22    26    27    1
    23    26    28   ar
    24     4     5    1
    25    13    14   ar
    26    14    15   ar
    27    15    11   ar
    28     5     1    1
    29    28    21   ar
    30     9    10    1
@<TRIPOS>MOLECULE
*****
 28 30 0 0 0
SMALL
GASTEIGER

@<TRIPOS>ATOM
      1 C         142.4412  141.6997  166.1422 C.3     1  UNL1        0.0370
      2 C         142.9574  140.2917  166.1797 C.3     1  UNL1        0.0204
      3 C         141.9547  139.4497  166.9116 C.3     1  UNL1        0.0722
      4 N         140.8189  140.3372  167.3265 N.3     1  UNL1       -0.2723
      5 C         141.1194  141.7278  166.8510 C.3     1  UNL1        0.0738
      6 C         143.1263  142.8733  165.5074 C.3     1  UNL1        0.0912
      7 C         141.8987  143.7673  163.3994 C.2     1  UNL1        0.2833
      8 O         140.7884  144.2843  164.2653 O.2     1  UNL1       -0.2667
      9 N         143.0677  143.0619  164.0204 N.am    1  UNL1       -0.2982
     10 H         143.7965  142.7226  163.4521 H       1  UNL1        0.1498
     11 C         141.0032  144.1799  159.6453 C.ar    1  UNL1        0.1005
     12 C         140.5974  143.9598  161.0726 C.ar    1  UNL1        0.0629
     13 C         141.8401  143.9558  161.9125 C.ar    1  UNL1        0.2295
     14 O         143.0140  144.1735  161.0044 O.2     1  UNL1       -0.3490
     15 N         142.4967  144.3120  159.6032 N.ar    1  UNL1       -0.0812
     16 C         140.1427  145.4291  157.5360 C.3     1  UNL1        0.0064
     17 C         140.0779  144.2548  158.4671 C.3     1  UNL1        0.0436
     18 C         139.0877  143.1554  158.2200 C.3     1  UNL1        0.0064
     19 C         139.5968  139.9094  168.0839 C.3     1  UNL1        0.0768
     20 C         138.4157  139.3501  167.3477 C.3     1  UNL1        0.0437
     21 C         138.4752  139.1720  165.8594 C.ar    1  UNL1       -0.0199
     22 C         138.9453  137.8718  165.2778 C.ar    1  UNL1       -0.0033
     23 C         139.0048  137.6938  163.7896 C.ar    1  UNL1        0.0119
     24 C         138.5941  138.8161  162.8830 C.ar    1  UNL1        0.0682
     25 CL        138.6535  138.6380  161.3948 Cl      1  UNL1       -0.0814
     26 C         138.1239  140.1163  163.4647 C.ar    1  UNL1        0.0679
     27 CL        137.7132  141.2385  162.5581 Cl      1  UNL1       -0.0814
     28 C         138.0644  140.2943  164.9528 C.ar    1  UNL1        0.0080
@<TRIPOS>BOND
     1    16    17    1
     2    17    18    1
     3    17    11    1
     4    11    12   ar
     5    12    13   ar
     6    13     7    1
     7     7     8    2
     8     7     9   am
     9     9     6    1
    10     1     6    1
    11     1     2    1
    12     2     3    1
    13     3     4    1
    14     4    19    1
    15    19    20    1
    16    20    21    1
    17    21    22   ar
    18    22    23   ar
    19    23    24   ar
    20    24    25    1
    21    24    26   ar
    22    26    27    1
    23    26    28   ar
    24     4     5    1
    25    13    14   ar
    26    14    15   ar
    27    15    11   ar
    28     5     1    1
    29    28    21   ar
    30     9    10    1
