@<TRIPOS>MOLECULE
*****
 37 41 0 0 0
SMALL
GASTEIGER

@<TRIPOS>ATOM
      1 C         138.4029  139.6728  160.1503 C.ar    1  UNL1        0.0503
      2 C         138.1400  140.5571  161.3331 C.ar    1  UNL1        0.0143
      3 C         138.8449  140.3011  162.6322 C.ar    1  UNL1       -0.0029
      4 C         139.8127  139.1611  162.7485 C.ar    1  UNL1       -0.0208
      5 C         140.0756  138.2768  161.5657 C.ar    1  UNL1       -0.0029
      6 C         139.3707  138.5328  160.2666 C.ar    1  UNL1        0.0143
      7 C         137.9334  141.2114  158.1101 C.2     1  UNL1        0.2313
      8 O         138.8737  142.2382  158.6680 O.2     1  UNL1       -0.2744
      9 N         137.6980  139.9287  158.8512 N.am    1  UNL1       -0.2836
     10 H         137.0808  139.2547  158.4850 H       1  UNL1        0.1549
     11 N         132.3695  139.3887  155.8378 N.pl3   1  UNL1       -0.3375
     12 C         133.6894  140.1002  155.7969 C.ar    1  UNL1        0.1560
     13 N         134.7179  140.1138  156.8887 N.ar    1  UNL1       -0.2287
     14 C         135.8767  140.9451  156.4237 C.ar    1  UNL1        0.0712
     15 C         135.5643  141.4452  155.0444 C.ar    1  UNL1        0.0239
     16 S         134.2125  140.9231  154.6571 S.2     1  UNL1       -0.0567
     17 C         136.7231  142.2765  154.5794 C.3     1  UNL1        0.0351
     18 C         137.7515  142.2900  155.6711 C.3     1  UNL1        0.0204
     19 C         137.2285  141.4672  156.8110 C.3     1  UNL1        0.1174
     20 H         132.1139  138.8709  156.6352 H       1  UNL1        0.1442
     21 H         131.7588  139.4395  155.0673 H       1  UNL1        0.1442
     22 C         140.5176  138.9052  164.0476 C.3     1  UNL1        0.0420
     23 C         139.7733  139.0364  165.3433 C.3     1  UNL1        0.0585
     24 C         138.4029  138.4988  165.6311 C.3     1  UNL1        0.0175
     25 C         138.0514  138.8583  167.0444 C.3     1  UNL1        0.0199
     26 C         139.2046  139.6181  167.6299 C.3     1  UNL1        0.0856
     27 N         140.2688  139.7282  166.5786 N.3     1  UNL1       -0.2971
     28 H         141.1256  139.2816  166.9053 H       1  UNL1        0.1233
     29 C         139.2802  140.1708  169.0223 C.3     1  UNL1        0.1484
     30 O         138.2234  139.8194  170.0271 O.3     1  UNL1       -0.3786
     31 H         137.5703  139.2309  169.6172 H       1  UNL1        0.2108
     32 C         140.4126  141.0749  169.4099 C.ar    1  UNL1        0.0247
     33 C         140.2031  142.5593  169.4623 C.ar    1  UNL1        0.0012
     34 C         141.3355  143.4633  169.8498 C.ar    1  UNL1        0.0204
     35 C         142.6775  142.8831  170.1850 C.ar    1  UNL1        0.0989
     36 N         142.8871  141.3988  170.1326 N.ar    1  UNL1       -0.2426
     37 C         141.7546  140.4947  169.7450 C.ar    1  UNL1        0.0969
@<TRIPOS>BOND
     1    11    12    1
     2    12    13   ar
     3    13    14   ar
     4    14    15   ar
     5    15    16   ar
     6    15    17    1
     7    17    18    1
     8    18    19    1
     9    19     7    1
    10     7     8    2
    11     7     9   am
    12     9     1    1
    13     1     2   ar
    14     2     3   ar
    15     3     4   ar
    16     4    22    1
    17    23    22    1
    18    23    24    1
    19    24    25    1
    20    26    25    1
    21    26    29    1
    22    29    30    1
    23    29    32    1
    24    32    33   ar
    25    33    34   ar
    26    34    35   ar
    27    35    36   ar
    28    36    37   ar
    29    26    27    1
    30     4     5   ar
    31     5     6   ar
    32    16    12   ar
    33     6     1   ar
    34    19    14    1
    35    27    23    1
    36    37    32   ar
    37    11    20    1
    38    11    21    1
    39     9    10    1
    40    30    31    1
    41    27    28    1
@<TRIPOS>MOLECULE
*****
 37 41 0 0 0
SMALL
GASTEIGER

@<TRIPOS>ATOM
      1 C         137.7390  139.6391  161.0579 C.ar    1  UNL1        0.0503
      2 C         138.3394  138.2952  161.3467 C.ar    1  UNL1        0.0143
      3 C         138.8076  137.9653  162.7331 C.ar    1  UNL1       -0.0029
      4 C         138.6753  138.9791  163.8307 C.ar    1  UNL1       -0.0208
      5 C         138.0749  140.3230  163.5419 C.ar    1  UNL1       -0.0029
      6 C         137.6067  140.6530  162.1555 C.ar    1  UNL1        0.0143
      7 C         138.1642  140.7339  158.7404 C.2     1  UNL1        0.2313
      8 O         139.5258  141.1686  159.1956 O.2     1  UNL1       -0.2744
      9 N         137.2708  139.9692  159.6716 N.am    1  UNL1       -0.2836
     10 H         136.3772  139.6839  159.3729 H       1  UNL1        0.1549
     11 N         132.7567  139.7350  155.7068 N.pl3   1  UNL1       -0.3375
     12 C         134.1639  140.2338  155.8518 C.ar    1  UNL1        0.1560
     13 N         135.0194  140.1151  157.0782 N.ar    1  UNL1       -0.2287
     14 C         136.3469  140.7468  156.7803 C.ar    1  UNL1        0.0712
     15 C         136.3118  141.2559  155.3698 C.ar    1  UNL1        0.0239
     16 S         134.9627  140.9388  154.7960 S.2     1  UNL1       -0.0567
     17 C         137.6393  141.8876  155.0719 C.3     1  UNL1        0.0351
     18 C         138.4947  141.7689  156.2982 C.3     1  UNL1        0.0204
     19 C         137.6961  141.0639  157.3541 C.3     1  UNL1        0.1174
     20 H         132.3149  139.2819  156.4609 H       1  UNL1        0.1442
     21 H         132.2750  139.8607  154.8574 H       1  UNL1        0.1442
     22 C         139.1435  138.6491  165.2170 C.3     1  UNL1        0.0420
     23 C         139.9638  139.6407  165.9875 C.3     1  UNL1        0.0585
     24 C         139.7103  140.0894  167.3962 C.3     1  UNL1        0.0175
     25 C         140.7715  141.0837  167.7640 C.3     1  UNL1        0.0199
     26 C         141.6808  141.2496  166.5826 C.3     1  UNL1        0.0856
     27 N         141.1816  140.3577  165.4847 N.3     1  UNL1       -0.2971
     28 H         141.9025  139.6813  165.2335 H       1  UNL1        0.1233
     29 C         142.8788  142.1493  166.5117 C.3     1  UNL1        0.1484
     30 O         143.5233  142.6410  167.7738 O.3     1  UNL1       -0.3786
     31 H         143.0456  142.2867  168.5400 H       1  UNL1        0.2108
     32 C         143.4324  142.5573  165.1786 C.ar    1  UNL1        0.0247
     33 C         144.5867  141.8061  164.5841 C.ar    1  UNL1        0.0012
     34 C         145.1403  142.2141  163.2510 C.ar    1  UNL1        0.0204
     35 C         144.5397  143.3733  162.5124 C.ar    1  UNL1        0.0989
     36 N         143.3855  144.1245  163.1070 N.ar    1  UNL1       -0.2426
     37 C         142.8319  143.7165  164.4400 C.ar    1  UNL1        0.0969
@<TRIPOS>BOND
     1    11    12    1
     2    12    13   ar
     3    13    14   ar
     4    14    15   ar
     5    15    16   ar
     6    15    17    1
     7    17    18    1
     8    18    19    1
     9    19     7    1
    10     7     8    2
    11     7     9   am
    12     9     1    1
    13     1     2   ar
    14     2     3   ar
    15     3     4   ar
    16     4    22    1
    17    23    22    1
    18    23    24    1
    19    24    25    1
    20    26    25    1
    21    26    29    1
    22    29    30    1
    23    29    32    1
    24    32    33   ar
    25    33    34   ar
    26    34    35   ar
    27    35    36   ar
    28    36    37   ar
    29    26    27    1
    30     4     5   ar
    31     5     6   ar
    32    16    12   ar
    33     6     1   ar
    34    19    14    1
    35    27    23    1
    36    37    32   ar
    37    11    20    1
    38    11    21    1
    39     9    10    1
    40    30    31    1
    41    27    28    1
@<TRIPOS>MOLECULE
*****
 37 41 0 0 0
SMALL
GASTEIGER

@<TRIPOS>ATOM
      1 C         138.1649  139.4400  160.6720 C.ar    1  UNL1        0.0503
      2 C         139.1799  138.3359  160.6462 C.ar    1  UNL1        0.0143
      3 C         139.7657  137.8256  161.9294 C.ar    1  UNL1       -0.0029
      4 C         139.3366  138.4194  163.2383 C.ar    1  UNL1       -0.0208
      5 C         138.3216  139.5235  163.2641 C.ar    1  UNL1       -0.0029
      6 C         137.7358  140.0338  161.9809 C.ar    1  UNL1        0.0143
      7 C         138.3137  140.9842  158.5879 C.2     1  UNL1        0.2313
      8 O         139.6341  141.5077  159.0700 O.2     1  UNL1       -0.2744
      9 N         137.5791  139.9503  159.3889 N.am    1  UNL1       -0.2836
     10 H         136.7125  139.6068  159.0725 H       1  UNL1        0.1549
     11 N         132.9399  139.7803  155.5688 N.pl3   1  UNL1       -0.3375
     12 C         134.2691  140.4460  155.7686 C.ar    1  UNL1        0.1560
     13 N         135.1994  140.2282  156.9249 N.ar    1  UNL1       -0.2287
     14 C         136.4067  141.0940  156.7180 C.ar    1  UNL1        0.0712
     15 C         136.2226  141.8469  155.4338 C.ar    1  UNL1        0.0239
     16 S         134.9015  141.4464  154.8470 S.2     1  UNL1       -0.0567
     17 C         137.4300  142.7127  155.2269 C.3     1  UNL1        0.0351
     18 C         138.3602  142.4949  156.3832 C.3     1  UNL1        0.0204
     19 C         137.7278  141.4945  157.3048 C.3     1  UNL1        0.1174
     20 H         132.6083  139.1339  156.2333 H       1  UNL1        0.1442
     21 H         132.3990  139.9898  154.7733 H       1  UNL1        0.1442
     22 C         139.9224  137.9090  164.5214 C.3     1  UNL1        0.0420
     23 C         141.0435  138.6545  165.1828 C.3     1  UNL1        0.0585
     24 C         142.4809  138.2278  165.2267 C.3     1  UNL1        0.0175
     25 C         143.2498  139.2671  165.9875 C.3     1  UNL1        0.0199
     26 C         142.2876  140.3360  166.4138 C.3     1  UNL1        0.0856
     27 N         140.9241  139.9573  165.9165 N.3     1  UNL1       -0.2971
     28 H         140.5729  140.6785  165.2864 H       1  UNL1        0.1233
     29 C         142.6291  141.5673  167.1994 C.3     1  UNL1        0.1484
     30 O         143.5998  142.5666  166.6433 O.3     1  UNL1       -0.3786
     31 H         143.9103  142.2669  165.7746 H       1  UNL1        0.2108
     32 C         142.0000  141.7992  168.5412 C.ar    1  UNL1        0.0247
     33 C         140.8231  142.7205  168.6685 C.ar    1  UNL1        0.0012
     34 C         140.1940  142.9525  170.0103 C.ar    1  UNL1        0.0204
     35 C         140.7416  142.2633  171.2247 C.ar    1  UNL1        0.0989
     36 N         141.9185  141.3420  171.0974 N.ar    1  UNL1       -0.2426
     37 C         142.5477  141.1100  169.7556 C.ar    1  UNL1        0.0969
@<TRIPOS>BOND
     1    11    12    1
     2    12    13   ar
     3    13    14   ar
     4    14    15   ar
     5    15    16   ar
     6    15    17    1
     7    17    18    1
     8    18    19    1
     9    19     7    1
    10     7     8    2
    11     7     9   am
    12     9     1    1
    13     1     2   ar
    14     2     3   ar
    15     3     4   ar
    16     4    22    1
    17    23    22    1
    18    23    24    1
    19    24    25    1
    20    26    25    1
    21    26    29    1
    22    29    30    1
    23    29    32    1
    24    32    33   ar
    25    33    34   ar
    26    34    35   ar
    27    35    36   ar
    28    36    37   ar
    29    26    27    1
    30     4     5   ar
    31     5     6   ar
    32    16    12   ar
    33     6     1   ar
    34    19    14    1
    35    27    23    1
    36    37    32   ar
    37    11    20    1
    38    11    21    1
    39     9    10    1
    40    30    31    1
    41    27    28    1
@<TRIPOS>MOLECULE
*****
 37 41 0 0 0
SMALL
GASTEIGER

@<TRIPOS>ATOM
      1 C         142.9923  138.8806  159.1652 C.ar    1  UNL1        0.0503
      2 C         142.8114  140.2205  158.5157 C.ar    1  UNL1        0.0143
      3 C         143.3173  141.4581  159.1959 C.ar    1  UNL1       -0.0029
      4 C         144.0040  141.3557  160.5255 C.ar    1  UNL1       -0.0208
      5 C         144.1849  140.0158  161.1750 C.ar    1  UNL1       -0.0029
      6 C         143.6790  138.7782  160.4948 C.ar    1  UNL1        0.0143
      7 C         142.9968  137.2734  157.1239 C.2     1  UNL1        0.2313
      8 O         144.0131  138.1413  156.4428 O.2     1  UNL1       -0.2744
      9 N         142.4864  137.6430  158.4851 N.am    1  UNL1       -0.2836
     10 H         141.8194  137.0734  158.9321 H       1  UNL1        0.1549
     11 N         144.2248  131.1642  157.9058 N.pl3   1  UNL1       -0.3375
     12 C         143.5542  132.3476  157.2735 C.ar    1  UNL1        0.1560
     13 N         143.7666  133.7848  157.6465 N.ar    1  UNL1       -0.2287
     14 C         142.8971  134.6271  156.7607 C.ar    1  UNL1        0.0712
     15 C         142.1473  133.7103  155.8401 C.ar    1  UNL1        0.0239
     16 S         142.5535  132.3015  156.1571 S.2     1  UNL1       -0.0567
     17 C         141.2779  134.5525  154.9543 C.3     1  UNL1        0.0351
     18 C         141.4903  135.9897  155.3274 C.3     1  UNL1        0.0204
     19 C         142.4910  136.0358  156.4438 C.3     1  UNL1        0.1174
     20 H         144.8711  131.2969  158.6366 H       1  UNL1        0.1442
     21 H         144.0187  130.2547  157.5901 H       1  UNL1        0.1442
     22 C         144.5099  142.5933  161.2056 C.3     1  UNL1        0.0420
     23 C         143.6008  143.3819  162.1009 C.3     1  UNL1        0.0585
     24 C         143.9866  144.5840  162.9109 C.3     1  UNL1        0.0175
     25 C         142.7705  145.0519  163.6540 C.3     1  UNL1        0.0199
     26 C         141.6331  144.1391  163.3032 C.3     1  UNL1        0.0856
     27 N         142.1462  143.1070  162.3433 N.3     1  UNL1       -0.2971
     28 H         141.6318  143.1654  161.4645 H       1  UNL1        0.1233
     29 C         140.2291  144.2406  163.8213 C.3     1  UNL1        0.1484
     30 O         139.7747  145.4897  164.5165 O.3     1  UNL1       -0.3786
     31 H         140.5052  146.1271  164.5464 H       1  UNL1        0.2108
     32 C         139.2795  143.0931  163.6441 C.ar    1  UNL1        0.0247
     33 C         139.3327  141.9238  164.5822 C.ar    1  UNL1        0.0012
     34 C         138.3831  140.7763  164.4050 C.ar    1  UNL1        0.0204
     35 C         137.3803  140.7980  163.2898 C.ar    1  UNL1        0.0989
     36 N         137.3271  141.9672  162.3517 N.ar    1  UNL1       -0.2426
     37 C         138.2767  143.1147  162.5288 C.ar    1  UNL1        0.0969
@<TRIPOS>BOND
     1    11    12    1
     2    12    13   ar
     3    13    14   ar
     4    14    15   ar
     5    15    16   ar
     6    15    17    1
     7    17    18    1
     8    18    19    1
     9    19     7    1
    10     7     8    2
    11     7     9   am
    12     9     1    1
    13     1     2   ar
    14     2     3   ar
    15     3     4   ar
    16     4    22    1
    17    23    22    1
    18    23    24    1
    19    24    25    1
    20    26    25    1
    21    26    29    1
    22    29    30    1
    23    29    32    1
    24    32    33   ar
    25    33    34   ar
    26    34    35   ar
    27    35    36   ar
    28    36    37   ar
    29    26    27    1
    30     4     5   ar
    31     5     6   ar
    32    16    12   ar
    33     6     1   ar
    34    19    14    1
    35    27    23    1
    36    37    32   ar
    37    11    20    1
    38    11    21    1
    39     9    10    1
    40    30    31    1
    41    27    28    1
@<TRIPOS>MOLECULE
*****
 37 41 0 0 0
SMALL
GASTEIGER

@<TRIPOS>ATOM
      1 C         142.9696  140.6540  163.4557 C.ar    1  UNL1        0.0503
      2 C         142.5802  141.9189  162.7497 C.ar    1  UNL1        0.0143
      3 C         142.4655  141.9381  161.2541 C.ar    1  UNL1       -0.0029
      4 C         142.7403  140.6926  160.4647 C.ar    1  UNL1       -0.0208
      5 C         143.1297  139.4278  161.1708 C.ar    1  UNL1       -0.0029
      6 C         143.2444  139.4085  162.6663 C.ar    1  UNL1        0.0143
      7 C         141.8500  140.5282  165.7968 C.2     1  UNL1        0.2313
      8 O         140.5009  140.4411  165.1469 O.2     1  UNL1       -0.2744
      9 N         143.0843  140.6347  164.9512 N.am    1  UNL1       -0.2836
     10 H         143.9698  140.6919  165.3778 H       1  UNL1        0.1549
     11 N         140.1267  144.5900  170.2661 N.pl3   1  UNL1       -0.3375
     12 C         140.7265  143.3202  169.7387 C.ar    1  UNL1        0.1560
     13 N         140.8238  142.9241  168.2953 N.ar    1  UNL1       -0.2287
     14 C         141.4917  141.5827  168.2267 C.ar    1  UNL1        0.0712
     15 C         141.8072  141.1499  169.6278 C.ar    1  UNL1        0.0239
     16 S         141.3342  142.2237  170.5623 S.2     1  UNL1       -0.0567
     17 C         142.4751  139.8085  169.5593 C.3     1  UNL1        0.0351
     18 C         142.5724  139.4124  168.1159 C.3     1  UNL1        0.0204
     19 C         141.9647  140.5089  167.2923 C.3     1  UNL1        0.1174
     20 H         139.7506  145.2527  169.6427 H       1  UNL1        0.1442
     21 H         140.1092  144.7606  171.2355 H       1  UNL1        0.1442
     22 C         142.6256  140.7119  158.9692 C.3     1  UNL1        0.0420
     23 C         142.4724  139.4262  158.2121 C.3     1  UNL1        0.0585
     24 C         141.1987  138.6543  158.0339 C.3     1  UNL1        0.0175
     25 C         141.5052  137.4375  157.2118 C.3     1  UNL1        0.0199
     26 C         142.9684  137.4575  156.8820 C.3     1  UNL1        0.0856
     27 N         143.5661  138.6865  157.5002 N.3     1  UNL1       -0.2971
     28 H         143.9685  139.2787  156.7737 H       1  UNL1        0.1233
     29 C         143.7044  136.4290  156.0756 C.3     1  UNL1        0.1484
     30 O         144.9622  136.8045  155.3496 O.3     1  UNL1       -0.3786
     31 H         145.1578  137.7417  155.5053 H       1  UNL1        0.2108
     32 C         143.1827  135.0249  155.9952 C.ar    1  UNL1        0.0247
     33 C         142.5601  134.5278  154.7243 C.ar    1  UNL1        0.0012
     34 C         142.0384  133.1238  154.6438 C.ar    1  UNL1        0.0204
     35 C         142.1393  132.2168  155.8342 C.ar    1  UNL1        0.0989
     36 N         142.7620  132.7139  157.1051 N.ar    1  UNL1       -0.2426
     37 C         143.2837  134.1179  157.1856 C.ar    1  UNL1        0.0969
@<TRIPOS>BOND
     1    11    12    1
     2    12    13   ar
     3    13    14   ar
     4    14    15   ar
     5    15    16   ar
     6    15    17    1
     7    17    18    1
     8    18    19    1
     9    19     7    1
    10     7     8    2
    11     7     9   am
    12     9     1    1
    13     1     2   ar
    14     2     3   ar
    15     3     4   ar
    16     4    22    1
    17    23    22    1
    18    23    24    1
    19    24    25    1
    20    26    25    1
    21    26    29    1
    22    29    30    1
    23    29    32    1
    24    32    33   ar
    25    33    34   ar
    26    34    35   ar
    27    35    36   ar
    28    36    37   ar
    29    26    27    1
    30     4     5   ar
    31     5     6   ar
    32    16    12   ar
    33     6     1   ar
    34    19    14    1
    35    27    23    1
    36    37    32   ar
    37    11    20    1
    38    11    21    1
    39     9    10    1
    40    30    31    1
    41    27    28    1
@<TRIPOS>MOLECULE
*****
 37 41 0 0 0
SMALL
GASTEIGER

@<TRIPOS>ATOM
      1 C         143.7180  139.6549  159.1514 C.ar    1  UNL1        0.0503
      2 C         143.8041  141.1097  158.7961 C.ar    1  UNL1        0.0143
      3 C         144.1177  142.1233  159.8565 C.ar    1  UNL1       -0.0029
      4 C         144.3452  141.6822  161.2720 C.ar    1  UNL1       -0.0208
      5 C         144.2591  140.2274  161.6272 C.ar    1  UNL1       -0.0029
      6 C         143.9455  139.2138  160.5669 C.ar    1  UNL1        0.0143
      7 C         142.0159  138.0867  157.9709 C.2     1  UNL1        0.2313
      8 O         140.9410  138.5458  158.9110 O.2     1  UNL1       -0.2744
      9 N         143.4044  138.6412  158.0911 N.am    1  UNL1       -0.2836
     10 H         144.1099  138.3399  157.4741 H       1  UNL1        0.1549
     11 N         144.7906  132.7285  156.2295 N.pl3   1  UNL1       -0.3375
     12 C         143.7509  133.8076  156.1611 C.ar    1  UNL1        0.1560
     13 N         143.6799  135.0205  157.0408 N.ar    1  UNL1       -0.2287
     14 C         142.4848  135.8257  156.6244 C.ar    1  UNL1        0.0712
     15 C         141.8172  135.1105  155.4874 C.ar    1  UNL1        0.0239
     16 S         142.5998  133.8632  155.2011 S.2     1  UNL1       -0.0567
     17 C         140.6222  135.9157  155.0710 C.3     1  UNL1        0.0351
     18 C         140.5512  137.1286  155.9506 C.3     1  UNL1        0.0204
     19 C         141.7022  137.0730  156.9107 C.3     1  UNL1        0.1174
     20 H         145.5112  132.7809  156.8983 H       1  UNL1        0.1442
     21 H         144.7524  131.9678  155.6057 H       1  UNL1        0.1442
     22 C         144.6588  142.6959  162.3322 C.3     1  UNL1        0.0420
     23 C         143.5502  143.4721  162.9791 C.3     1  UNL1        0.0585
     24 C         143.5030  144.9609  163.1560 C.3     1  UNL1        0.0175
     25 C         142.2178  145.3047  163.8489 C.3     1  UNL1        0.0199
     26 C         141.4707  144.0285  164.1001 C.3     1  UNL1        0.0856
     27 N         142.2942  142.8959  163.5626 N.3     1  UNL1       -0.2971
     28 H         141.7720  142.4009  162.8396 H       1  UNL1        0.1233
     29 C         140.1348  143.9064  164.7711 C.3     1  UNL1        0.1484
     30 O         139.2764  145.1219  164.9600 O.3     1  UNL1       -0.3786
     31 H         139.7298  145.8978  164.5948 H       1  UNL1        0.2108
     32 C         139.6572  142.5687  165.2533 C.ar    1  UNL1        0.0247
     33 C         138.6609  141.7919  164.4445 C.ar    1  UNL1        0.0012
     34 C         138.1833  140.4542  164.9267 C.ar    1  UNL1        0.0204
     35 C         138.7019  139.8933  166.2175 C.ar    1  UNL1        0.0989
     36 N         139.6981  140.6701  167.0263 N.ar    1  UNL1       -0.2426
     37 C         140.1757  142.0077  166.5441 C.ar    1  UNL1        0.0969
@<TRIPOS>BOND
     1    11    12    1
     2    12    13   ar
     3    13    14   ar
     4    14    15   ar
     5    15    16   ar
     6    15    17    1
     7    17    18    1
     8    18    19    1
     9    19     7    1
    10     7     8    2
    11     7     9   am
    12     9     1    1
    13     1     2   ar
    14     2     3   ar
    15     3     4   ar
    16     4    22    1
    17    23    22    1
    18    23    24    1
    19    24    25    1
    20    26    25    1
    21    26    29    1
    22    29    30    1
    23    29    32    1
    24    32    33   ar
    25    33    34   ar
    26    34    35   ar
    27    35    36   ar
    28    36    37   ar
    29    26    27    1
    30     4     5   ar
    31     5     6   ar
    32    16    12   ar
    33     6     1   ar
    34    19    14    1
    35    27    23    1
    36    37    32   ar
    37    11    20    1
    38    11    21    1
    39     9    10    1
    40    30    31    1
    41    27    28    1
@<TRIPOS>MOLECULE
*****
 37 41 0 0 0
SMALL
GASTEIGER

@<TRIPOS>ATOM
      1 C         140.5847  145.1843  161.6137 C.ar    1  UNL1        0.0503
      2 C         141.7672  144.6105  162.3364 C.ar    1  UNL1        0.0143
      3 C         141.6159  144.1082  163.7418 C.ar    1  UNL1       -0.0029
      4 C         140.2822  144.1796  164.4243 C.ar    1  UNL1       -0.0208
      5 C         139.0996  144.7534  163.7016 C.ar    1  UNL1       -0.0029
      6 C         139.2509  145.2557  162.2963 C.ar    1  UNL1        0.0143
      7 C         140.3735  144.8019  159.0526 C.2     1  UNL1        0.2313
      8 O         139.8599  143.4148  159.3021 O.2     1  UNL1       -0.2744
      9 N         140.7359  145.6866  160.2085 N.am    1  UNL1       -0.2836
     10 H         141.0730  146.5970  160.0447 H       1  UNL1        0.1549
     11 N         137.9806  149.7422  156.0015 N.pl3   1  UNL1       -0.3375
     12 C         138.8088  148.4994  156.1411 C.ar    1  UNL1        0.1560
     13 N         138.9493  147.6682  157.3818 N.ar    1  UNL1       -0.2287
     14 C         139.8693  146.5247  157.0720 C.ar    1  UNL1        0.0712
     15 C         140.2974  146.6491  155.6398 C.ar    1  UNL1        0.0239
     16 S         139.6419  147.8695  155.0645 S.2     1  UNL1       -0.0567
     17 C         141.2173  145.5055  155.3300 C.3     1  UNL1        0.0351
     18 C         141.3578  144.6745  156.5707 C.3     1  UNL1        0.0204
     19 C         140.5247  145.3043  157.6474 C.3     1  UNL1        0.1174
     20 H         137.4655  150.0793  156.7698 H       1  UNL1        0.1442
     21 H         137.9521  150.2207  155.1416 H       1  UNL1        0.1442
     22 C         140.1310  143.6773  165.8296 C.3     1  UNL1        0.0420
     23 C         139.8738  142.2212  166.0820 C.3     1  UNL1        0.0585
     24 C         139.9701  141.5257  167.4075 C.3     1  UNL1        0.0175
     25 C         139.6310  140.0796  167.1979 C.3     1  UNL1        0.0199
     26 C         139.3252  139.8814  165.7429 C.3     1  UNL1        0.0856
     27 N         139.4753  141.2050  165.0532 N.3     1  UNL1       -0.2971
     28 H         138.5895  141.4747  164.6252 H       1  UNL1        0.1233
     29 C         138.9374  138.5869  165.0918 C.3     1  UNL1        0.1484
     30 O         138.3321  137.4866  165.9122 O.3     1  UNL1       -0.3786
     31 H         138.2615  137.7735  166.8361 H       1  UNL1        0.2108
     32 C         139.1550  138.3927  163.6205 C.ar    1  UNL1        0.0247
     33 C         138.0811  138.7770  162.6463 C.ar    1  UNL1        0.0012
     34 C         138.2987  138.5828  161.1750 C.ar    1  UNL1        0.0204
     35 C         139.5901  138.0042  160.6777 C.ar    1  UNL1        0.0989
     36 N         140.6640  137.6198  161.6518 N.ar    1  UNL1       -0.2426
     37 C         140.4464  137.8141  163.1232 C.ar    1  UNL1        0.0969
@<TRIPOS>BOND
     1    11    12    1
     2    12    13   ar
     3    13    14   ar
     4    14    15   ar
     5    15    16   ar
     6    15    17    1
     7    17    18    1
     8    18    19    1
     9    19     7    1
    10     7     8    2
    11     7     9   am
    12     9     1    1
    13     1     2   ar
    14     2     3   ar
    15     3     4   ar
    16     4    22    1
    17    23    22    1
    18    23    24    1
    19    24    25    1
    20    26    25    1
    21    26    29    1
    22    29    30    1
    23    29    32    1
    24    32    33   ar
    25    33    34   ar
    26    34    35   ar
    27    35    36   ar
    28    36    37   ar
    29    26    27    1
    30     4     5   ar
    31     5     6   ar
    32    16    12   ar
    33     6     1   ar
    34    19    14    1
    35    27    23    1
    36    37    32   ar
    37    11    20    1
    38    11    21    1
    39     9    10    1
    40    30    31    1
    41    27    28    1
@<TRIPOS>MOLECULE
*****
 37 41 0 0 0
SMALL
GASTEIGER

@<TRIPOS>ATOM
      1 C         139.2620  138.9198  159.7631 C.ar    1  UNL1        0.0503
      2 C         138.4664  138.5043  160.9649 C.ar    1  UNL1        0.0143
      3 C         139.1687  138.0136  162.1962 C.ar    1  UNL1       -0.0029
      4 C         140.6665  137.9385  162.2258 C.ar    1  UNL1       -0.0208
      5 C         141.4621  138.3540  161.0240 C.ar    1  UNL1       -0.0029
      6 C         140.7598  138.8447  159.7926 C.ar    1  UNL1        0.0143
      7 C         138.1551  140.8507  158.4228 C.2     1  UNL1        0.2313
      8 O         138.4526  141.8003  159.5451 O.2     1  UNL1       -0.2744
      9 N         138.5598  139.4104  158.5318 N.am    1  UNL1       -0.2836
     10 H         138.3645  138.7872  157.7951 H       1  UNL1        0.1549
     11 N         132.5979  139.4757  155.8403 N.pl3   1  UNL1       -0.3375
     12 C         133.9173  140.1832  155.9344 C.ar    1  UNL1        0.1560
     13 N         134.9433  139.9957  157.0124 N.ar    1  UNL1       -0.2287
     14 C         136.1024  140.8989  156.7113 C.ar    1  UNL1        0.0712
     15 C         135.7927  141.6447  155.4472 C.ar    1  UNL1        0.0239
     16 S         134.4422  141.2023  154.9671 S.2     1  UNL1       -0.0567
     17 C         136.9518  142.5479  155.1461 C.3     1  UNL1        0.0351
     18 C         137.9778  142.3604  156.2241 C.3     1  UNL1        0.0204
     19 C         137.4529  141.3413  157.1914 C.3     1  UNL1        0.1174
     20 H         132.3410  138.8197  156.5279 H       1  UNL1        0.1442
     21 H         131.9889  139.6674  155.0909 H       1  UNL1        0.1442
     22 C         141.3687  137.4479  163.4571 C.3     1  UNL1        0.0420
     23 C         141.7881  138.4206  164.5191 C.3     1  UNL1        0.0585
     24 C         142.8330  138.1834  165.5689 C.3     1  UNL1        0.0175
     25 C         142.9269  139.4175  166.4164 C.3     1  UNL1        0.0199
     26 C         141.9402  140.4173  165.8905 C.3     1  UNL1        0.0856
     27 N         141.2363  139.8012  164.7179 N.3     1  UNL1       -0.2971
     28 H         141.3994  140.3627  163.8821 H       1  UNL1        0.1233
     29 C         141.6995  141.7919  166.4405 C.3     1  UNL1        0.1484
     30 O         142.0577  142.1036  167.8634 O.3     1  UNL1       -0.3786
     31 H         142.4305  141.3129  168.2837 H       1  UNL1        0.2108
     32 C         141.1006  142.8547  165.5678 C.ar    1  UNL1        0.0247
     33 C         139.7560  143.4297  165.9016 C.ar    1  UNL1        0.0012
     34 C         139.1572  144.4925  165.0288 C.ar    1  UNL1        0.0204
     35 C         139.9028  144.9804  163.8222 C.ar    1  UNL1        0.0989
     36 N         141.2474  144.4054  163.4884 N.ar    1  UNL1       -0.2426
     37 C         141.8463  143.3426  164.3612 C.ar    1  UNL1        0.0969
@<TRIPOS>BOND
     1    11    12    1
     2    12    13   ar
     3    13    14   ar
     4    14    15   ar
     5    15    16   ar
     6    15    17    1
     7    17    18    1
     8    18    19    1
     9    19     7    1
    10     7     8    2
    11     7     9   am
    12     9     1    1
    13     1     2   ar
    14     2     3   ar
    15     3     4   ar
    16     4    22    1
    17    23    22    1
    18    23    24    1
    19    24    25    1
    20    26    25    1
    21    26    29    1
    22    29    30    1
    23    29    32    1
    24    32    33   ar
    25    33    34   ar
    26    34    35   ar
    27    35    36   ar
    28    36    37   ar
    29    26    27    1
    30     4     5   ar
    31     5     6   ar
    32    16    12   ar
    33     6     1   ar
    34    19    14    1
    35    27    23    1
    36    37    32   ar
    37    11    20    1
    38    11    21    1
    39     9    10    1
    40    30    31    1
    41    27    28    1
@<TRIPOS>MOLECULE
*****
 37 41 0 0 0
SMALL
GASTEIGER

@<TRIPOS>ATOM
      1 C         138.9688  139.8520  164.2574 C.ar    1  UNL1        0.0503
      2 C         138.7929  138.4550  163.7404 C.ar    1  UNL1        0.0143
      3 C         138.7565  138.2014  162.2624 C.ar    1  UNL1       -0.0029
      4 C         138.8960  139.3447  161.3015 C.ar    1  UNL1       -0.0208
      5 C         139.0719  140.7417  161.8186 C.ar    1  UNL1       -0.0029
      6 C         139.1083  140.9953  163.2966 C.ar    1  UNL1        0.0143
      7 C         140.3218  140.2031  166.4475 C.2     1  UNL1        0.2313
      8 O         141.6020  140.0469  165.6816 O.2     1  UNL1       -0.2744
      9 N         139.0052  140.1057  165.7354 N.am    1  UNL1       -0.2836
     10 H         138.1649  140.2082  166.2381 H       1  UNL1        0.1549
     11 N         144.5738  142.8735  170.2199 N.pl3   1  UNL1       -0.3375
     12 C         143.2771  142.1915  169.8984 C.ar    1  UNL1        0.1560
     13 N         142.8247  141.7541  168.5368 N.ar    1  UNL1       -0.2287
     14 C         141.4731  141.1194  168.6790 C.ar    1  UNL1        0.0712
     15 C         141.0900  141.1645  170.1286 C.ar    1  UNL1        0.0239
     16 S         142.2050  141.8271  170.8822 S.2     1  UNL1       -0.0567
     17 C         139.7384  140.5298  170.2708 C.3     1  UNL1        0.0351
     18 C         139.2861  140.0924  168.9092 C.3     1  UNL1        0.0204
     19 C         140.3582  140.4568  167.9254 C.3     1  UNL1        0.1174
     20 H         145.2171  143.0717  169.5014 H       1  UNL1        0.1442
     21 H         144.7816  143.1230  171.1493 H       1  UNL1        0.1442
     22 C         138.8596  139.0910  159.8235 C.3     1  UNL1        0.0420
     23 C         140.0985  138.6377  159.1096 C.3     1  UNL1        0.0585
     24 C         141.5096  138.8455  159.5740 C.3     1  UNL1        0.0175
     25 C         142.4270  138.2332  158.5574 C.3     1  UNL1        0.0199
     26 C         141.5829  137.6470  157.4647 C.3     1  UNL1        0.0856
     27 N         140.1438  137.8970  157.8060 N.3     1  UNL1       -0.2971
     28 H         139.6499  137.0091  157.8951 H       1  UNL1        0.1233
     29 C         142.0891  136.9358  156.2450 C.3     1  UNL1        0.1484
     30 O         142.5280  137.7228  155.0458 O.3     1  UNL1       -0.3786
     31 H         142.4207  138.6703  155.2240 H       1  UNL1        0.2108
     32 C         142.1563  135.4374  156.2244 C.ar    1  UNL1        0.0247
     33 C         141.3449  134.6639  155.2278 C.ar    1  UNL1        0.0012
     34 C         141.4122  133.1655  155.2071 C.ar    1  UNL1        0.0204
     35 C         142.2908  132.4407  156.1830 C.ar    1  UNL1        0.0989
     36 N         143.1023  133.2142  157.1796 N.ar    1  UNL1       -0.2426
     37 C         143.0350  134.7126  157.2002 C.ar    1  UNL1        0.0969
@<TRIPOS>BOND
     1    11    12    1
     2    12    13   ar
     3    13    14   ar
     4    14    15   ar
     5    15    16   ar
     6    15    17    1
     7    17    18    1
     8    18    19    1
     9    19     7    1
    10     7     8    2
    11     7     9   am
    12     9     1    1
    13     1     2   ar
    14     2     3   ar
    15     3     4   ar
    16     4    22    1
    17    23    22    1
    18    23    24    1
    19    24    25    1
    20    26    25    1
    21    26    29    1
    22    29    30    1
    23    29    32    1
    24    32    33   ar
    25    33    34   ar
    26    34    35   ar
    27    35    36   ar
    28    36    37   ar
    29    26    27    1
    30     4     5   ar
    31     5     6   ar
    32    16    12   ar
    33     6     1   ar
    34    19    14    1
    35    27    23    1
    36    37    32   ar
    37    11    20    1
    38    11    21    1
    39     9    10    1
    40    30    31    1
    41    27    28    1
