@<TRIPOS>MOLECULE
*****
 25 28 0 0 0
SMALL
GASTEIGER

@<TRIPOS>ATOM
      1 C         139.1534  138.2892  164.8111 C.ar    1  UNL1        0.1479
      2 C         140.4054  137.4639  164.7720 C.ar    1  UNL1        0.0407
      3 C         141.1144  137.2379  163.4696 C.ar    1  UNL1        0.0400
      4 C         140.5713  137.8373  162.2063 C.ar    1  UNL1        0.1388
      5 C         139.3194  138.6625  162.2454 C.ar    1  UNL1        0.0400
      6 C         138.6104  138.8885  163.5478 C.ar    1  UNL1        0.0407
      7 O         138.4444  138.5152  166.1135 O.3     1  UNL1       -0.4313
      8 C         141.0299  143.1852  169.7344 C.ar    1  UNL1        0.0213
      9 C         140.4096  142.4139  170.8614 C.ar    1  UNL1        0.1006
     10 N         139.6380  141.1595  170.5765 N.ar    1  UNL1       -0.2245
     11 C         139.4868  140.6764  169.1645 C.ar    1  UNL1        0.1720
     12 N         138.7885  139.4840  168.5810 N.ar    1  UNL1       -0.1859
     13 C         138.9772  139.5184  167.0933 C.ar    1  UNL1        0.2642
     14 S         139.7922  140.7320  166.7573 S.2     1  UNL1       -0.0267
     15 C         140.1072  141.4477  168.0375 C.ar    1  UNL1        0.0697
     16 C         140.8787  142.7021  168.3224 C.ar    1  UNL1        0.0113
     17 O         141.2803  137.6113  160.9038 O.3     1  UNL1       -0.4740
     18 C         142.7705  137.7635  160.8249 C.3     1  UNL1        0.2226
     19 C         143.3762  139.1213  160.6258 C.3     1  UNL1        0.1200
     20 N         144.0824  139.8013  161.7610 N.3     1  UNL1       -0.2696
     21 C         144.5704  141.2110  161.6040 C.3     1  UNL1        0.0722
     22 C         145.2766  141.8910  162.7392 C.3     1  UNL1        0.0174
     23 C         145.4949  141.1614  164.0315 C.3     1  UNL1        0.0029
     24 C         145.0070  139.7517  164.1885 C.3     1  UNL1        0.0174
     25 C         144.3008  139.0716  163.0532 C.3     1  UNL1        0.0722
@<TRIPOS>BOND
     1     8     9   ar
     2     9    10   ar
     3    10    11   ar
     4    11    12   ar
     5    12    13   ar
     6    13     7    1
     7     7     1    1
     8     1     2   ar
     9     2     3   ar
    10     3     4   ar
    11     4    17    1
    12    17    18    1
    13    18    19    1
    14    19    20    1
    15    20    21    1
    16    21    22    1
    17    22    23    1
    18    23    24    1
    19    24    25    1
    20     4     5   ar
    21     5     6   ar
    22    13    14   ar
    23    14    15   ar
    24    15    16   ar
    25    16     8   ar
    26    15    11   ar
    27     6     1   ar
    28    25    20    1
@<TRIPOS>MOLECULE
*****
 25 28 0 0 0
SMALL
GASTEIGER

@<TRIPOS>ATOM
      1 C         143.4619  142.9796  164.4121 C.ar    1  UNL1        0.1479
      2 C         143.7085  144.4444  164.2030 C.ar    1  UNL1        0.0407
      3 C         143.1797  145.1263  162.9760 C.ar    1  UNL1        0.0400
      4 C         142.4043  144.3433  161.9582 C.ar    1  UNL1        0.1388
      5 C         142.1577  142.8786  162.1674 C.ar    1  UNL1        0.0400
      6 C         142.6865  142.1968  163.3944 C.ar    1  UNL1        0.0407
      7 O         143.9907  142.2978  165.6391 O.3     1  UNL1       -0.4313
      8 C         139.7028  141.2212  170.3359 C.ar    1  UNL1        0.0213
      9 C         140.7396  141.8829  171.1945 C.ar    1  UNL1        0.1006
     10 N         142.0223  142.3649  170.5844 N.ar    1  UNL1       -0.2245
     11 C         142.2683  142.1853  169.1157 C.ar    1  UNL1        0.1720
     12 N         143.4280  142.5558  168.2395 N.ar    1  UNL1       -0.1859
     13 C         143.1080  142.1231  166.8394 C.ar    1  UNL1        0.2642
     14 S         141.7505  141.4852  166.8502 S.2     1  UNL1       -0.0267
     15 C         141.2315  141.5237  168.2571 C.ar    1  UNL1        0.0697
     16 C         139.9488  141.0416  168.8672 C.ar    1  UNL1        0.0113
     17 O         141.8755  145.0252  160.7312 O.3     1  UNL1       -0.4740
     18 C         140.4406  145.4589  160.6738 C.3     1  UNL1        0.2226
     19 C         139.7259  145.8550  161.9317 C.3     1  UNL1        0.1200
     20 N         139.1923  144.8001  162.8550 N.3     1  UNL1       -0.2696
     21 C         138.2174  143.7805  162.3451 C.3     1  UNL1        0.0722
     22 C         137.6838  142.7256  163.2684 C.3     1  UNL1        0.0174
     23 C         138.1251  142.6903  164.7016 C.3     1  UNL1        0.0029
     24 C         139.1000  143.7099  165.2115 C.3     1  UNL1        0.0174
     25 C         139.6337  144.7648  164.2881 C.3     1  UNL1        0.0722
@<TRIPOS>BOND
     1     8     9   ar
     2     9    10   ar
     3    10    11   ar
     4    11    12   ar
     5    12    13   ar
     6    13     7    1
     7     7     1    1
     8     1     2   ar
     9     2     3   ar
    10     3     4   ar
    11     4    17    1
    12    17    18    1
    13    18    19    1
    14    19    20    1
    15    20    21    1
    16    21    22    1
    17    22    23    1
    18    23    24    1
    19    24    25    1
    20     4     5   ar
    21     5     6   ar
    22    13    14   ar
    23    14    15   ar
    24    15    16   ar
    25    16     8   ar
    26    15    11   ar
    27     6     1   ar
    28    25    20    1
@<TRIPOS>MOLECULE
*****
 25 28 0 0 0
SMALL
GASTEIGER

@<TRIPOS>ATOM
      1 C         141.6845  138.1416  164.6131 C.ar    1  UNL1        0.1479
      2 C         142.0995  138.6683  163.2713 C.ar    1  UNL1        0.0407
      3 C         141.1418  138.6201  162.1178 C.ar    1  UNL1        0.0400
      4 C         139.7691  138.0452  162.3062 C.ar    1  UNL1        0.1388
      5 C         139.3542  137.5186  163.6480 C.ar    1  UNL1        0.0400
      6 C         140.3119  137.5668  164.8015 C.ar    1  UNL1        0.0407
      7 O         142.6422  138.1898  165.7666 O.3     1  UNL1       -0.4313
      8 C         141.5488  143.0509  169.8629 C.ar    1  UNL1        0.0213
      9 C         142.2983  142.1775  170.8248 C.ar    1  UNL1        0.1006
     10 N         142.8188  140.8436  170.3776 N.ar    1  UNL1       -0.2245
     11 C         142.5898  140.3832  168.9686 C.ar    1  UNL1        0.1720
     12 N         142.9814  139.1281  168.2465 N.ar    1  UNL1       -0.1859
     13 C         142.4739  139.2258  166.8384 C.ar    1  UNL1        0.2642
     14 S         141.7686  140.5413  166.6901 S.2     1  UNL1       -0.0267
     15 C         141.8402  141.2566  168.0067 C.ar    1  UNL1        0.0697
     16 C         141.3198  142.5905  168.4538 C.ar    1  UNL1        0.0113
     17 O         138.8114  137.9970  161.1527 O.3     1  UNL1       -0.4740
     18 C         137.6314  138.9225  161.1184 C.3     1  UNL1        0.2226
     19 C         137.8310  140.3821  160.8361 C.3     1  UNL1        0.1200
     20 N         137.8607  141.3675  161.9665 N.3     1  UNL1       -0.2696
     21 C         137.9749  142.8354  161.6792 C.3     1  UNL1        0.0722
     22 C         138.0046  143.8208  162.8097 C.3     1  UNL1        0.0174
     23 C         137.9201  143.3384  164.2275 C.3     1  UNL1        0.0029
     24 C         137.8059  141.8707  164.5149 C.3     1  UNL1        0.0174
     25 C         137.7762  140.8852  163.3844 C.3     1  UNL1        0.0722
@<TRIPOS>BOND
     1     8     9   ar
     2     9    10   ar
     3    10    11   ar
     4    11    12   ar
     5    12    13   ar
     6    13     7    1
     7     7     1    1
     8     1     2   ar
     9     2     3   ar
    10     3     4   ar
    11     4    17    1
    12    17    18    1
    13    18    19    1
    14    19    20    1
    15    20    21    1
    16    21    22    1
    17    22    23    1
    18    23    24    1
    19    24    25    1
    20     4     5   ar
    21     5     6   ar
    22    13    14   ar
    23    14    15   ar
    24    15    16   ar
    25    16     8   ar
    26    15    11   ar
    27     6     1   ar
    28    25    20    1
@<TRIPOS>MOLECULE
*****
 25 28 0 0 0
SMALL
GASTEIGER

@<TRIPOS>ATOM
      1 C         138.1478  140.4213  164.2972 C.ar    1  UNL1        0.1479
      2 C         138.4049  139.8169  162.9487 C.ar    1  UNL1        0.0407
      3 C         138.4588  140.6928  161.7321 C.ar    1  UNL1        0.0400
      4 C         138.2558  142.1731  161.8642 C.ar    1  UNL1        0.1388
      5 C         137.9987  142.7775  163.2128 C.ar    1  UNL1        0.0400
      6 C         137.9447  141.9016  164.4293 C.ar    1  UNL1        0.0407
      7 O         138.0938  139.5454  165.5138 O.3     1  UNL1       -0.4313
      8 C         142.8899  140.4917  169.7217 C.ar    1  UNL1        0.0213
      9 C         141.8238  140.1991  170.7353 C.ar    1  UNL1        0.1006
     10 N         140.4262  139.8906  170.2862 N.ar    1  UNL1       -0.2245
     11 C         140.0949  139.8747  168.8233 C.ar    1  UNL1        0.1720
     12 N         138.8162  139.6061  168.0867 N.ar    1  UNL1       -0.1859
     13 C         139.0920  139.7328  166.6177 C.ar    1  UNL1        0.2642
     14 S         140.5413  140.0796  166.4465 S.2     1  UNL1       -0.0267
     15 C         141.1611  140.1673  167.8097 C.ar    1  UNL1        0.0697
     16 C         142.5586  140.4758  168.2588 C.ar    1  UNL1        0.0113
     17 O         138.3097  143.0490  160.6477 O.3     1  UNL1       -0.4740
     18 C         139.5441  143.8491  160.3537 C.3     1  UNL1        0.2226
     19 C         140.8989  143.2626  160.6195 C.3     1  UNL1        0.1200
     20 N         141.7827  143.8630  161.6723 N.3     1  UNL1       -0.2696
     21 C         143.2550  143.5757  161.6688 C.3     1  UNL1        0.0722
     22 C         144.1387  144.1761  162.7216 C.3     1  UNL1        0.0174
     23 C         143.5503  145.0638  163.7779 C.3     1  UNL1        0.0029
     24 C         142.0781  145.3510  163.7815 C.3     1  UNL1        0.0174
     25 C         141.1942  144.7506  162.7286 C.3     1  UNL1        0.0722
@<TRIPOS>BOND
     1     8     9   ar
     2     9    10   ar
     3    10    11   ar
     4    11    12   ar
     5    12    13   ar
     6    13     7    1
     7     7     1    1
     8     1     2   ar
     9     2     3   ar
    10     3     4   ar
    11     4    17    1
    12    17    18    1
    13    18    19    1
    14    19    20    1
    15    20    21    1
    16    21    22    1
    17    22    23    1
    18    23    24    1
    19    24    25    1
    20     4     5   ar
    21     5     6   ar
    22    13    14   ar
    23    14    15   ar
    24    15    16   ar
    25    16     8   ar
    26    15    11   ar
    27     6     1   ar
    28    25    20    1
@<TRIPOS>MOLECULE
*****
 25 28 0 0 0
SMALL
GASTEIGER

@<TRIPOS>ATOM
      1 C         144.0180  141.8158  164.4622 C.ar    1  UNL1        0.1479
      2 C         143.5245  142.2638  163.1184 C.ar    1  UNL1        0.0407
      3 C         143.6129  141.3393  161.9405 C.ar    1  UNL1        0.0400
      4 C         144.1949  139.9667  162.1065 C.ar    1  UNL1        0.1388
      5 C         144.6884  139.5187  163.4502 C.ar    1  UNL1        0.0400
      6 C         144.6000  140.4433  164.6281 C.ar    1  UNL1        0.0407
      7 O         143.9296  142.7403  165.6401 O.3     1  UNL1       -0.4313
      8 C         139.7755  140.9191  170.2261 C.ar    1  UNL1        0.0213
      9 C         140.8543  141.4020  171.1497 C.ar    1  UNL1        0.1006
     10 N         142.1266  141.9637  170.5880 N.ar    1  UNL1       -0.2245
     11 C         142.3202  142.0426  169.1026 C.ar    1  UNL1        0.1720
     12 N         143.4585  142.5437  168.2640 N.ar    1  UNL1       -0.1859
     13 C         143.0832  142.3704  166.8220 C.ar    1  UNL1        0.2642
     14 S         141.7130  141.7623  166.7695 S.2     1  UNL1       -0.0267
     15 C         141.2415  141.5598  168.1791 C.ar    1  UNL1        0.0697
     16 C         139.9691  140.9980  168.7408 C.ar    1  UNL1        0.0113
     17 O         144.2833  139.0422  160.9286 O.3     1  UNL1       -0.4740
     18 C         143.4571  137.7906  160.8938 C.3     1  UNL1        0.2226
     19 C         141.9759  137.8757  160.6732 C.3     1  UNL1        0.1200
     20 N         141.0376  137.7900  161.8404 N.3     1  UNL1       -0.2696
     21 C         139.5660  137.9970  161.6365 C.3     1  UNL1        0.0722
     22 C         138.6278  137.9113  162.8037 C.3     1  UNL1        0.0174
     23 C         139.1611  137.6186  164.1748 C.3     1  UNL1        0.0029
     24 C         140.6326  137.4116  164.3787 C.3     1  UNL1        0.0174
     25 C         141.5710  137.4973  163.2115 C.3     1  UNL1        0.0722
@<TRIPOS>BOND
     1     8     9   ar
     2     9    10   ar
     3    10    11   ar
     4    11    12   ar
     5    12    13   ar
     6    13     7    1
     7     7     1    1
     8     1     2   ar
     9     2     3   ar
    10     3     4   ar
    11     4    17    1
    12    17    18    1
    13    18    19    1
    14    19    20    1
    15    20    21    1
    16    21    22    1
    17    22    23    1
    18    23    24    1
    19    24    25    1
    20     4     5   ar
    21     5     6   ar
    22    13    14   ar
    23    14    15   ar
    24    15    16   ar
    25    16     8   ar
    26    15    11   ar
    27     6     1   ar
    28    25    20    1
@<TRIPOS>MOLECULE
*****
 25 28 0 0 0
SMALL
GASTEIGER

@<TRIPOS>ATOM
      1 C         138.4542  138.8956  165.5245 C.ar    1  UNL1        0.1479
      2 C         138.0507  140.0089  164.6037 C.ar    1  UNL1        0.0407
      3 C         138.3288  139.9041  163.1334 C.ar    1  UNL1        0.0400
      4 C         139.0104  138.6860  162.5840 C.ar    1  UNL1        0.1388
      5 C         139.4139  137.5728  163.5048 C.ar    1  UNL1        0.0400
      6 C         139.1357  137.6776  164.9751 C.ar    1  UNL1        0.0407
      7 O         138.1760  139.0004  166.9948 O.3     1  UNL1       -0.4313
      8 C         142.4642  142.6353  170.1576 C.ar    1  UNL1        0.0213
      9 C         141.7247  142.1456  171.3673 C.ar    1  UNL1        0.1006
     10 N         140.5604  141.2133  171.2081 N.ar    1  UNL1       -0.2245
     11 C         140.1356  140.7708  169.8393 C.ar    1  UNL1        0.1720
     12 N         139.0346  139.8645  169.3741 N.ar    1  UNL1       -0.1859
     13 C         139.0935  139.7942  167.8769 C.ar    1  UNL1        0.2642
     14 S         140.2310  140.6569  167.4168 S.2     1  UNL1       -0.0267
     15 C         140.8751  141.2605  168.6297 C.ar    1  UNL1        0.0697
     16 C         142.0394  142.1927  168.7888 C.ar    1  UNL1        0.0113
     17 O         139.2886  138.5813  161.1137 O.3     1  UNL1       -0.4740
     18 C         140.6953  138.3930  160.6281 C.3     1  UNL1        0.2226
     19 C         141.7273  139.4491  160.8917 C.3     1  UNL1        0.1200
     20 N         142.2193  139.6849  162.2889 N.3     1  UNL1       -0.2696
     21 C         141.9459  140.9934  162.9695 C.3     1  UNL1        0.0722
     22 C         142.4378  141.2292  164.3668 C.3     1  UNL1        0.0174
     23 C         143.2031  140.1565  165.0835 C.3     1  UNL1        0.0029
     24 C         143.4765  138.8481  164.4030 C.3     1  UNL1        0.0174
     25 C         142.9846  138.6122  163.0056 C.3     1  UNL1        0.0722
@<TRIPOS>BOND
     1     8     9   ar
     2     9    10   ar
     3    10    11   ar
     4    11    12   ar
     5    12    13   ar
     6    13     7    1
     7     7     1    1
     8     1     2   ar
     9     2     3   ar
    10     3     4   ar
    11     4    17    1
    12    17    18    1
    13    18    19    1
    14    19    20    1
    15    20    21    1
    16    21    22    1
    17    22    23    1
    18    23    24    1
    19    24    25    1
    20     4     5   ar
    21     5     6   ar
    22    13    14   ar
    23    14    15   ar
    24    15    16   ar
    25    16     8   ar
    26    15    11   ar
    27     6     1   ar
    28    25    20    1
@<TRIPOS>MOLECULE
*****
 25 28 0 0 0
SMALL
GASTEIGER

@<TRIPOS>ATOM
      1 C         138.5065  139.2502  165.2301 C.ar    1  UNL1        0.1479
      2 C         137.9293  140.6055  164.9472 C.ar    1  UNL1        0.0407
      3 C         137.6525  141.0225  163.5332 C.ar    1  UNL1        0.0400
      4 C         137.9530  140.0843  162.4020 C.ar    1  UNL1        0.1388
      5 C         138.5303  138.7290  162.6850 C.ar    1  UNL1        0.0400
      6 C         138.8070  138.3120  164.0990 C.ar    1  UNL1        0.0407
      7 O         138.7833  138.8332  166.6442 O.3     1  UNL1       -0.4313
      8 C         143.1410  142.4502  169.7315 C.ar    1  UNL1        0.0213
      9 C         142.2229  142.2476  170.9003 C.ar    1  UNL1        0.1006
     10 N         140.9733  141.4334  170.7402 N.ar    1  UNL1       -0.2245
     11 C         140.6418  140.8218  169.4113 C.ar    1  UNL1        0.1720
     12 N         139.4900  139.9763  168.9548 N.ar    1  UNL1       -0.1859
     13 C         139.6962  139.6564  167.5039 C.ar    1  UNL1        0.2642
     14 S         140.9754  140.3041  167.0636 S.2     1  UNL1       -0.0267
     15 C         141.5599  141.0244  168.2425 C.ar    1  UNL1        0.0697
     16 C         142.8095  141.8386  168.4026 C.ar    1  UNL1        0.0113
     17 O         137.6763  140.5013  160.9880 O.3     1  UNL1       -0.4740
     18 C         138.6935  141.3010  160.2292 C.3     1  UNL1        0.2226
     19 C         138.8183  142.7765  160.4688 C.3     1  UNL1        0.1200
     20 N         139.4219  143.2805  161.7461 N.3     1  UNL1       -0.2696
     21 C         138.7330  144.3606  162.5263 C.3     1  UNL1        0.0722
     22 C         139.3366  144.8646  163.8036 C.3     1  UNL1        0.0174
     23 C         140.6293  144.2885  164.3007 C.3     1  UNL1        0.0029
     24 C         141.3182  143.2084  163.5206 C.3     1  UNL1        0.0174
     25 C         140.7146  142.7044  162.2433 C.3     1  UNL1        0.0722
@<TRIPOS>BOND
     1     8     9   ar
     2     9    10   ar
     3    10    11   ar
     4    11    12   ar
     5    12    13   ar
     6    13     7    1
     7     7     1    1
     8     1     2   ar
     9     2     3   ar
    10     3     4   ar
    11     4    17    1
    12    17    18    1
    13    18    19    1
    14    19    20    1
    15    20    21    1
    16    21    22    1
    17    22    23    1
    18    23    24    1
    19    24    25    1
    20     4     5   ar
    21     5     6   ar
    22    13    14   ar
    23    14    15   ar
    24    15    16   ar
    25    16     8   ar
    26    15    11   ar
    27     6     1   ar
    28    25    20    1
@<TRIPOS>MOLECULE
*****
 25 28 0 0 0
SMALL
GASTEIGER

@<TRIPOS>ATOM
      1 C         140.5824  143.6987  164.3576 C.ar    1  UNL1        0.1479
      2 C         140.1533  142.8795  163.1765 C.ar    1  UNL1        0.0407
      3 C         140.8734  143.0160  161.8677 C.ar    1  UNL1        0.0400
      4 C         142.0225  143.9717  161.7400 C.ar    1  UNL1        0.1388
      5 C         142.4515  144.7908  162.9211 C.ar    1  UNL1        0.0400
      6 C         141.7315  144.6543  164.2299 C.ar    1  UNL1        0.0407
      7 O         139.8624  143.5622  165.6663 O.3     1  UNL1       -0.4313
      8 C         142.5691  139.4508  169.8346 C.ar    1  UNL1        0.0213
      9 C         142.1632  140.4820  170.8454 C.ar    1  UNL1        0.1006
     10 N         141.4525  141.7267  170.4032 N.ar    1  UNL1       -0.2245
     11 C         141.1478  141.9402  168.9501 C.ar    1  UNL1        0.1720
     12 N         140.4648  143.0596  168.2217 N.ar    1  UNL1       -0.1859
     13 C         140.4486  142.7202  166.7607 C.ar    1  UNL1        0.2642
     14 S         141.1216  141.3911  166.5861 S.2     1  UNL1       -0.0267
     15 C         141.5537  140.9090  167.9393 C.ar    1  UNL1        0.0697
     16 C         142.2644  139.6643  168.3815 C.ar    1  UNL1        0.0113
     17 O         142.7426  144.1082  160.4313 O.3     1  UNL1       -0.4740
     18 C         143.3829  142.9082  159.7988 C.3     1  UNL1        0.2226
     19 C         144.6975  142.4010  160.3133 C.3     1  UNL1        0.1200
     20 N         144.7429  141.5585  161.5535 N.3     1  UNL1       -0.2696
     21 C         145.4087  142.0817  162.7917 C.3     1  UNL1        0.0722
     22 C         145.4541  141.2392  164.0319 C.3     1  UNL1        0.0174
     23 C         144.8337  139.8735  164.0339 C.3     1  UNL1        0.0029
     24 C         144.1679  139.3503  162.7958 C.3     1  UNL1        0.0174
     25 C         144.1225  140.1928  161.5556 C.3     1  UNL1        0.0722
@<TRIPOS>BOND
     1     8     9   ar
     2     9    10   ar
     3    10    11   ar
     4    11    12   ar
     5    12    13   ar
     6    13     7    1
     7     7     1    1
     8     1     2   ar
     9     2     3   ar
    10     3     4   ar
    11     4    17    1
    12    17    18    1
    13    18    19    1
    14    19    20    1
    15    20    21    1
    16    21    22    1
    17    22    23    1
    18    23    24    1
    19    24    25    1
    20     4     5   ar
    21     5     6   ar
    22    13    14   ar
    23    14    15   ar
    24    15    16   ar
    25    16     8   ar
    26    15    11   ar
    27     6     1   ar
    28    25    20    1
@<TRIPOS>MOLECULE
*****
 25 28 0 0 0
SMALL
GASTEIGER

@<TRIPOS>ATOM
      1 C         139.2196  143.0713  164.6269 C.ar    1  UNL1        0.1479
      2 C         137.9422  142.2849  164.6314 C.ar    1  UNL1        0.0407
      3 C         137.4254  141.6867  163.3566 C.ar    1  UNL1        0.0400
      4 C         138.1859  141.8750  162.0774 C.ar    1  UNL1        0.1388
      5 C         139.4632  142.6614  162.0730 C.ar    1  UNL1        0.0400
      6 C         139.9800  143.2596  163.3478 C.ar    1  UNL1        0.0407
      7 O         139.7365  143.6695  165.9017 O.3     1  UNL1       -0.4313
      8 C         142.5912  139.4116  169.8165 C.ar    1  UNL1        0.0213
      9 C         142.2459  140.4172  170.8745 C.ar    1  UNL1        0.1006
     10 N         141.5294  141.6814  170.5025 N.ar    1  UNL1       -0.2245
     11 C         141.1582  141.9401  169.0724 C.ar    1  UNL1        0.1720
     12 N         140.4543  143.0870  168.4098 N.ar    1  UNL1       -0.1859
     13 C         140.3645  142.7902  166.9422 C.ar    1  UNL1        0.2642
     14 S         141.0129  141.4599  166.6977 S.2     1  UNL1       -0.0267
     15 C         141.5035  140.9345  168.0143 C.ar    1  UNL1        0.0697
     16 C         142.2200  139.6703  168.3864 C.ar    1  UNL1        0.0113
     17 O         137.6690  141.2768  160.8026 O.3     1  UNL1       -0.4740
     18 C         137.8459  139.8112  160.5361 C.3     1  UNL1        0.2226
     19 C         139.1746  139.1595  160.7807 C.3     1  UNL1        0.1200
     20 N         139.5826  138.7886  162.1756 N.3     1  UNL1       -0.2696
     21 C         140.9790  139.0667  162.6476 C.3     1  UNL1        0.0722
     22 C         141.3870  138.6957  164.0426 C.3     1  UNL1        0.0174
     23 C         140.3987  138.0467  164.9656 C.3     1  UNL1        0.0029
     24 C         139.0023  137.7685  164.4936 C.3     1  UNL1        0.0174
     25 C         138.5943  138.1395  163.0986 C.3     1  UNL1        0.0722
@<TRIPOS>BOND
     1     8     9   ar
     2     9    10   ar
     3    10    11   ar
     4    11    12   ar
     5    12    13   ar
     6    13     7    1
     7     7     1    1
     8     1     2   ar
     9     2     3   ar
    10     3     4   ar
    11     4    17    1
    12    17    18    1
    13    18    19    1
    14    19    20    1
    15    20    21    1
    16    21    22    1
    17    22    23    1
    18    23    24    1
    19    24    25    1
    20     4     5   ar
    21     5     6   ar
    22    13    14   ar
    23    14    15   ar
    24    15    16   ar
    25    16     8   ar
    26    15    11   ar
    27     6     1   ar
    28    25    20    1
