@<TRIPOS>MOLECULE
*****
 37 41 0 0 0
SMALL
GASTEIGER

@<TRIPOS>ATOM
      1 C         145.6376  142.0164  163.6586 C.3     1  UNL1        0.0769
      2 N         142.9712  140.1551  160.5480 N.pl3   1  UNL1       -0.3035
      3 C         143.1107  139.5142  161.8970 C.3     1  UNL1        0.1082
      4 C         143.9995  140.1346  162.9338 C.3     1  UNL1        0.0938
      5 N         144.7488  141.3960  162.6217 N.3     1  UNL1       -0.2695
      6 C         144.6093  142.0370  161.2727 C.3     1  UNL1        0.0938
      7 C         143.7205  141.4165  160.2359 C.3     1  UNL1        0.1082
      8 C         140.3047  138.2938  157.4375 C.ar    1  UNL1        0.0700
      9 C         141.6202  137.6575  157.7756 C.ar    1  UNL1        0.0116
     10 C         142.5090  138.2779  158.8124 C.ar    1  UNL1        0.0167
     11 C         142.0823  139.5347  159.5112 C.ar    1  UNL1        0.0658
     12 C         140.7667  140.1711  159.1731 C.ar    1  UNL1        0.0952
     13 N         140.3400  141.4279  159.8719 N.ar    1  UNL1       -0.2426
     14 C         139.0245  142.0643  159.5338 C.ar    1  UNL1        0.0989
     15 C         138.1357  141.4439  158.4969 C.ar    1  UNL1        0.0207
     16 C         138.5624  140.1871  157.7982 C.ar    1  UNL1        0.0038
     17 C         139.8779  139.5507  158.1363 C.ar    1  UNL1        0.0285
     18 N         138.5270  137.0530  155.3638 N.1     1  UNL1       -0.1908
     19 C         139.4159  137.6734  156.4006 C.1     1  UNL1        0.1005
     20 C         145.0432  142.8524  164.7529 C.3     1  UNL1        0.0437
     21 C         143.6381  143.3626  164.6280 C.ar    1  UNL1       -0.0206
     22 C         143.3562  144.5927  163.8172 C.ar    1  UNL1       -0.0011
     23 C         141.9511  145.1029  163.6923 C.ar    1  UNL1        0.0366
     24 C         140.8280  144.3828  164.3781 C.ar    1  UNL1        0.1385
     25 C         141.1100  143.1527  165.1888 C.ar    1  UNL1        0.0366
     26 C         142.5150  142.6426  165.3137 C.ar    1  UNL1       -0.0011
     27 O         139.4230  144.8930  164.2532 O.3     1  UNL1       -0.4754
     28 C         138.6405  144.6360  162.9994 C.3     1  UNL1        0.2068
     29 C         137.7226  143.4524  162.9175 C.3     1  UNL1        0.0646
     30 C         137.6176  142.5033  164.0743 C.3     1  UNL1        0.0759
     31 N         137.9799  141.0589  163.8947 N.3     1  UNL1       -0.2726
     32 C         138.4604  140.3504  165.1264 C.3     1  UNL1        0.0721
     33 C         138.8935  138.9219  165.2746 C.3     1  UNL1        0.0173
     34 C         138.9529  137.8491  164.2278 C.3     1  UNL1        0.0015
     35 C         138.5940  137.9399  162.7742 C.3     1  UNL1        0.0015
     36 C         138.0870  139.1259  162.0085 C.3     1  UNL1        0.0173
     37 C         137.8137  140.5140  162.5071 C.3     1  UNL1        0.0721
@<TRIPOS>BOND
     1    18    19    3
     2    19     8    1
     3     8     9   ar
     4     9    10   ar
     5    10    11   ar
     6    11     2    1
     7     2     3    1
     8     3     4    1
     9     4     5    1
    10     5     1    1
    11     1    20    1
    12    20    21    1
    13    21    22   ar
    14    22    23   ar
    15    23    24   ar
    16    24    27    1
    17    27    28    1
    18    28    29    1
    19    29    30    1
    20    30    31    1
    21    31    32    1
    22    32    33    1
    23    33    34    1
    24    34    35    1
    25    35    36    1
    26    36    37    1
    27    24    25   ar
    28    25    26   ar
    29     5     6    1
    30     6     7    1
    31    11    12   ar
    32    12    13   ar
    33    13    14   ar
    34    14    15   ar
    35    15    16   ar
    36    16    17   ar
    37    17     8   ar
    38     7     2    1
    39    17    12   ar
    40    26    21   ar
    41    37    31    1
@<TRIPOS>MOLECULE
*****
 37 41 0 0 0
SMALL
GASTEIGER

@<TRIPOS>ATOM
      1 C         139.7134  146.2321  161.8481 C.3     1  UNL1        0.0769
      2 N         140.8978  143.3009  165.0505 N.pl3   1  UNL1       -0.3035
      3 C         141.9507  144.0843  164.3242 C.3     1  UNL1        0.1082
      4 C         141.5559  145.0613  163.2568 C.3     1  UNL1        0.0938
      5 N         140.1082  145.2550  162.9156 N.3     1  UNL1       -0.2695
      6 C         139.0551  144.4716  163.6419 C.3     1  UNL1        0.0938
      7 C         139.4499  143.4946  164.7094 C.3     1  UNL1        0.1082
      8 C         142.0821  140.3698  168.2530 C.ar    1  UNL1        0.0700
      9 C         141.3729  141.6387  168.6228 C.ar    1  UNL1        0.0116
     10 C         140.9781  142.6157  167.5553 C.ar    1  UNL1        0.0167
     11 C         141.2926  142.3239  166.1180 C.ar    1  UNL1        0.0658
     12 C         142.0019  141.0549  165.7481 C.ar    1  UNL1        0.0952
     13 N         142.3163  140.7631  164.3108 N.ar    1  UNL1       -0.2426
     14 C         143.0256  139.4942  163.9410 C.ar    1  UNL1        0.0989
     15 C         143.4204  138.5171  165.0085 C.ar    1  UNL1        0.0207
     16 C         143.1059  138.8090  166.4458 C.ar    1  UNL1        0.0038
     17 C         142.3967  140.0779  166.8156 C.ar    1  UNL1        0.0285
     18 N         142.8717  138.4157  170.3880 N.1     1  UNL1       -0.1908
     19 C         142.4769  139.3927  169.3205 C.1     1  UNL1        0.1005
     20 C         140.0226  145.9375  160.4102 C.3     1  UNL1        0.0437
     21 C         140.4506  144.5589  160.0023 C.ar    1  UNL1       -0.0206
     22 C         141.8359  144.3289  159.4750 C.ar    1  UNL1       -0.0011
     23 C         142.2639  142.9504  159.0670 C.ar    1  UNL1        0.0366
     24 C         141.3065  141.8018  159.1864 C.ar    1  UNL1        0.1385
     25 C         139.9212  142.0318  159.7137 C.ar    1  UNL1        0.0366
     26 C         139.4933  143.4103  160.1216 C.ar    1  UNL1       -0.0011
     27 O         141.7345  140.4232  158.7785 O.3     1  UNL1       -0.4754
     28 C         140.7419  139.2985  158.7802 C.3     1  UNL1        0.2068
     29 C         140.5756  138.4469  160.0038 C.3     1  UNL1        0.0646
     30 C         139.2341  138.3396  160.6662 C.3     1  UNL1        0.0759
     31 N         139.0990  138.6122  162.1350 N.3     1  UNL1       -0.2726
     32 C         139.8108  137.6536  163.0430 C.3     1  UNL1        0.0721
     33 C         139.8693  137.6534  164.5419 C.3     1  UNL1        0.0173
     34 C         139.2305  138.6116  165.5030 C.3     1  UNL1        0.0015
     35 C         138.3754  139.8068  165.2025 C.3     1  UNL1        0.0015
     36 C         137.9479  140.3389  163.8668 C.3     1  UNL1        0.0173
     37 C         138.2699  139.8072  162.5016 C.3     1  UNL1        0.0721
@<TRIPOS>BOND
     1    18    19    3
     2    19     8    1
     3     8     9   ar
     4     9    10   ar
     5    10    11   ar
     6    11     2    1
     7     2     3    1
     8     3     4    1
     9     4     5    1
    10     5     1    1
    11     1    20    1
    12    20    21    1
    13    21    22   ar
    14    22    23   ar
    15    23    24   ar
    16    24    27    1
    17    27    28    1
    18    28    29    1
    19    29    30    1
    20    30    31    1
    21    31    32    1
    22    32    33    1
    23    33    34    1
    24    34    35    1
    25    35    36    1
    26    36    37    1
    27    24    25   ar
    28    25    26   ar
    29     5     6    1
    30     6     7    1
    31    11    12   ar
    32    12    13   ar
    33    13    14   ar
    34    14    15   ar
    35    15    16   ar
    36    16    17   ar
    37    17     8   ar
    38     7     2    1
    39    17    12   ar
    40    26    21   ar
    41    37    31    1
@<TRIPOS>MOLECULE
*****
 37 41 0 0 0
SMALL
GASTEIGER

@<TRIPOS>ATOM
      1 C         138.4966  138.0213  161.0781 C.3     1  UNL1        0.0769
      2 N         139.4196  139.5390  165.2127 N.pl3   1  UNL1       -0.3035
      3 C         138.6368  140.3912  164.2583 C.3     1  UNL1        0.1082
      4 C         138.3292  139.8854  162.8801 C.3     1  UNL1        0.0938
      5 N         138.8043  138.5272  162.4563 N.3     1  UNL1       -0.2695
      6 C         139.5871  137.6749  163.4107 C.3     1  UNL1        0.0938
      7 C         139.8947  138.1807  164.7889 C.3     1  UNL1        0.1082
      8 C         140.3425  141.0566  169.3473 C.ar    1  UNL1        0.0700
      9 C         139.1071  140.2408  169.1062 C.ar    1  UNL1        0.0116
     10 C         138.7994  139.7350  167.7280 C.ar    1  UNL1        0.0167
     11 C         139.7272  140.0448  166.5909 C.ar    1  UNL1        0.0658
     12 C         140.9627  140.8606  166.8320 C.ar    1  UNL1        0.0952
     13 N         141.8905  141.1705  165.6948 N.ar    1  UNL1       -0.2426
     14 C         143.1260  141.9863  165.9359 C.ar    1  UNL1        0.0989
     15 C         143.4336  142.4922  167.3141 C.ar    1  UNL1        0.0207
     16 C         142.5058  142.1823  168.4512 C.ar    1  UNL1        0.0038
     17 C         141.2704  141.3665  168.2102 C.ar    1  UNL1        0.0285
     18 N         140.9578  142.0683  172.1037 N.1     1  UNL1       -0.1908
     19 C         140.6501  141.5625  170.7255 C.1     1  UNL1        0.1005
     20 C         139.5046  138.1799  159.9786 C.3     1  UNL1        0.0437
     21 C         140.6186  139.1744  160.1201 C.ar    1  UNL1       -0.0206
     22 C         141.9147  138.7636  160.7537 C.ar    1  UNL1       -0.0011
     23 C         143.0287  139.7581  160.8952 C.ar    1  UNL1        0.0366
     24 C         142.8466  141.1633  160.4030 C.ar    1  UNL1        0.1385
     25 C         141.5506  141.5740  159.7694 C.ar    1  UNL1        0.0366
     26 C         140.4365  140.5796  159.6280 C.ar    1  UNL1       -0.0011
     27 O         143.9606  142.1578  160.5445 O.3     1  UNL1       -0.4754
     28 C         144.0687  142.9912  161.7870 C.3     1  UNL1        0.2068
     29 C         143.1258  144.1372  162.0057 C.3     1  UNL1        0.0646
     30 C         142.4758  144.3287  163.3439 C.3     1  UNL1        0.0759
     31 N         140.9895  144.1821  163.4836 N.3     1  UNL1       -0.2726
     32 C         140.2426  143.8883  162.2164 C.3     1  UNL1        0.0721
     33 C         138.7684  143.6886  162.0247 C.3     1  UNL1        0.0173
     34 C         137.6769  143.7333  163.0527 C.3     1  UNL1        0.0015
     35 C         137.7902  143.9888  164.5264 C.3     1  UNL1        0.0015
     36 C         139.0229  144.2627  165.3360 C.3     1  UNL1        0.0173
     37 C         140.4468  144.3487  164.8719 C.3     1  UNL1        0.0721
@<TRIPOS>BOND
     1    18    19    3
     2    19     8    1
     3     8     9   ar
     4     9    10   ar
     5    10    11   ar
     6    11     2    1
     7     2     3    1
     8     3     4    1
     9     4     5    1
    10     5     1    1
    11     1    20    1
    12    20    21    1
    13    21    22   ar
    14    22    23   ar
    15    23    24   ar
    16    24    27    1
    17    27    28    1
    18    28    29    1
    19    29    30    1
    20    30    31    1
    21    31    32    1
    22    32    33    1
    23    33    34    1
    24    34    35    1
    25    35    36    1
    26    36    37    1
    27    24    25   ar
    28    25    26   ar
    29     5     6    1
    30     6     7    1
    31    11    12   ar
    32    12    13   ar
    33    13    14   ar
    34    14    15   ar
    35    15    16   ar
    36    16    17   ar
    37    17     8   ar
    38     7     2    1
    39    17    12   ar
    40    26    21   ar
    41    37    31    1
@<TRIPOS>MOLECULE
*****
 37 41 0 0 0
SMALL
GASTEIGER

@<TRIPOS>ATOM
      1 C         142.5466  137.9018  157.3785 C.3     1  UNL1        0.0769
      2 N         141.0445  138.5340  161.5730 N.pl3   1  UNL1       -0.3035
      3 C         142.4174  137.9749  161.3444 C.3     1  UNL1        0.1082
      4 C         142.9181  137.7641  159.9462 C.3     1  UNL1        0.0938
      5 N         142.0459  138.1126  158.7767 N.3     1  UNL1       -0.2695
      6 C         140.6729  138.6717  159.0053 C.3     1  UNL1        0.0938
      7 C         140.1722  138.8825  160.4035 C.3     1  UNL1        0.1082
      8 C         139.5423  139.1662  165.7675 C.ar    1  UNL1        0.0700
      9 C         139.2835  137.8658  165.0662 C.ar    1  UNL1        0.0116
     10 C         139.7842  137.6551  163.6681 C.ar    1  UNL1        0.0167
     11 C         140.5438  138.7448  162.9712 C.ar    1  UNL1        0.0658
     12 C         140.8026  140.0453  163.6725 C.ar    1  UNL1        0.0952
     13 N         141.5621  141.1350  162.9756 N.ar    1  UNL1       -0.2426
     14 C         141.8209  142.4354  163.6769 C.ar    1  UNL1        0.0989
     15 C         141.3202  142.6461  165.0751 C.ar    1  UNL1        0.0207
     16 C         140.5607  141.5564  165.7720 C.ar    1  UNL1        0.0038
     17 C         140.3019  140.2560  165.0707 C.ar    1  UNL1        0.0285
     18 N         138.5409  139.5877  168.5639 N.1     1  UNL1       -0.1908
     19 C         139.0416  139.3770  167.1657 C.1     1  UNL1        0.1005
     20 C         143.3724  138.9606  156.7100 C.3     1  UNL1        0.0437
     21 C         143.2286  140.3957  157.1225 C.ar    1  UNL1       -0.0206
     22 C         144.0881  140.9504  158.2196 C.ar    1  UNL1       -0.0011
     23 C         143.9443  142.3854  158.6320 C.ar    1  UNL1        0.0366
     24 C         142.9411  143.2657  157.9473 C.ar    1  UNL1        0.1385
     25 C         142.0817  142.7109  156.8502 C.ar    1  UNL1        0.0366
     26 C         142.2254  141.2759  156.4378 C.ar    1  UNL1       -0.0011
     27 O         142.7973  144.7007  158.3598 O.3     1  UNL1       -0.4754
     28 C         141.4391  145.2622  158.6603 C.3     1  UNL1        0.2068
     29 C         140.4780  144.4857  159.5108 C.3     1  UNL1        0.0646
     30 C         139.9899  145.0610  160.8072 C.3     1  UNL1        0.0759
     31 N         139.1990  144.2091  161.7552 N.3     1  UNL1       -0.2726
     32 C         138.8984  144.8264  163.0889 C.3     1  UNL1        0.0721
     33 C         138.1379  144.2395  164.2409 C.3     1  UNL1        0.0173
     34 C         137.4901  142.8905  164.3439 C.3     1  UNL1        0.0015
     35 C         137.4429  141.7951  163.3202 C.3     1  UNL1        0.0015
     36 C         138.0318  141.7783  161.9408 C.3     1  UNL1        0.0173
     37 C         138.8134  142.8526  161.2443 C.3     1  UNL1        0.0721
@<TRIPOS>BOND
     1    18    19    3
     2    19     8    1
     3     8     9   ar
     4     9    10   ar
     5    10    11   ar
     6    11     2    1
     7     2     3    1
     8     3     4    1
     9     4     5    1
    10     5     1    1
    11     1    20    1
    12    20    21    1
    13    21    22   ar
    14    22    23   ar
    15    23    24   ar
    16    24    27    1
    17    27    28    1
    18    28    29    1
    19    29    30    1
    20    30    31    1
    21    31    32    1
    22    32    33    1
    23    33    34    1
    24    34    35    1
    25    35    36    1
    26    36    37    1
    27    24    25   ar
    28    25    26   ar
    29     5     6    1
    30     6     7    1
    31    11    12   ar
    32    12    13   ar
    33    13    14   ar
    34    14    15   ar
    35    15    16   ar
    36    16    17   ar
    37    17     8   ar
    38     7     2    1
    39    17    12   ar
    40    26    21   ar
    41    37    31    1
@<TRIPOS>MOLECULE
*****
 37 41 0 0 0
SMALL
GASTEIGER

@<TRIPOS>ATOM
      1 C         141.9119  138.1949  158.8602 C.3     1  UNL1        0.0769
      2 N         140.6477  138.9660  163.1096 N.pl3   1  UNL1       -0.3035
      3 C         139.9855  139.7044  161.9843 C.3     1  UNL1        0.1082
      4 C         140.4069  139.4474  160.5679 C.3     1  UNL1        0.0938
      5 N         141.4905  138.4519  160.2766 N.3     1  UNL1       -0.2695
      6 C         142.1528  137.7135  161.4019 C.3     1  UNL1        0.0938
      7 C         141.7314  137.9705  162.8184 C.3     1  UNL1        0.1082
      8 C         139.3836  139.7372  167.3589 C.ar    1  UNL1        0.0700
      9 C         138.5646  138.8343  166.4849 C.ar    1  UNL1        0.0116
     10 C         138.9860  138.5773  165.0685 C.ar    1  UNL1        0.0167
     11 C         140.2264  139.2231  164.5260 C.ar    1  UNL1        0.0658
     12 C         141.0454  140.1261  165.4000 C.ar    1  UNL1        0.0952
     13 N         142.2858  140.7719  164.8576 N.ar    1  UNL1       -0.2426
     14 C         143.1048  141.6749  165.7316 C.ar    1  UNL1        0.0989
     15 C         142.6834  141.9319  167.1480 C.ar    1  UNL1        0.0207
     16 C         141.4431  141.2861  167.6905 C.ar    1  UNL1        0.0038
     17 C         140.6241  140.3832  166.8165 C.ar    1  UNL1        0.0285
     18 N         138.5408  140.2514  170.1918 N.1     1  UNL1       -0.1908
     19 C         138.9622  139.9943  168.7754 C.1     1  UNL1        0.1005
     20 C         142.9733  139.0451  158.2274 C.3     1  UNL1        0.0437
     21 C         142.8565  140.5401  158.2623 C.ar    1  UNL1       -0.0206
     22 C         143.7842  141.3450  159.1235 C.ar    1  UNL1       -0.0011
     23 C         143.6673  142.8401  159.1583 C.ar    1  UNL1        0.0366
     24 C         142.6228  143.5302  158.3320 C.ar    1  UNL1        0.1385
     25 C         141.6952  142.7252  157.4708 C.ar    1  UNL1        0.0366
     26 C         141.8120  141.2302  157.4360 C.ar    1  UNL1       -0.0011
     27 O         142.5059  145.0252  158.3668 O.3     1  UNL1       -0.4754
     28 C         141.2474  145.6676  158.8704 C.3     1  UNL1        0.2068
     29 C         140.7379  145.3441  160.2437 C.3     1  UNL1        0.0646
     30 C         139.8557  144.1494  160.4541 C.3     1  UNL1        0.0759
     31 N         139.4594  143.7451  161.8432 N.3     1  UNL1       -0.2726
     32 C         138.2079  142.9251  161.9503 C.3     1  UNL1        0.0721
     33 C         137.5551  142.3717  163.1822 C.3     1  UNL1        0.0173
     34 C         137.9923  142.5017  164.6112 C.3     1  UNL1        0.0015
     35 C         139.1904  143.2171  165.1612 C.3     1  UNL1        0.0015
     36 C         140.2473  143.9793  164.4181 C.3     1  UNL1        0.0173
     37 C         140.3670  144.2143  162.9414 C.3     1  UNL1        0.0721
@<TRIPOS>BOND
     1    18    19    3
     2    19     8    1
     3     8     9   ar
     4     9    10   ar
     5    10    11   ar
     6    11     2    1
     7     2     3    1
     8     3     4    1
     9     4     5    1
    10     5     1    1
    11     1    20    1
    12    20    21    1
    13    21    22   ar
    14    22    23   ar
    15    23    24   ar
    16    24    27    1
    17    27    28    1
    18    28    29    1
    19    29    30    1
    20    30    31    1
    21    31    32    1
    22    32    33    1
    23    33    34    1
    24    34    35    1
    25    35    36    1
    26    36    37    1
    27    24    25   ar
    28    25    26   ar
    29     5     6    1
    30     6     7    1
    31    11    12   ar
    32    12    13   ar
    33    13    14   ar
    34    14    15   ar
    35    15    16   ar
    36    16    17   ar
    37    17     8   ar
    38     7     2    1
    39    17    12   ar
    40    26    21   ar
    41    37    31    1
@<TRIPOS>MOLECULE
*****
 37 41 0 0 0
SMALL
GASTEIGER

@<TRIPOS>ATOM
      1 C         144.6942  142.4912  160.7011 C.3     1  UNL1        0.0769
      2 N         143.1554  141.9902  164.9001 N.pl3   1  UNL1       -0.3035
      3 C         142.6073  143.0784  164.0253 C.3     1  UNL1        0.1082
      4 C         143.1203  143.2454  162.6256 C.3     1  UNL1        0.0938
      5 N         144.1813  142.3242  162.1008 N.3     1  UNL1       -0.2695
      6 C         144.7295  141.2359  162.9756 C.3     1  UNL1        0.0938
      7 C         144.2166  141.0689  164.3752 C.3     1  UNL1        0.1082
      8 C         141.6167  141.4891  169.0990 C.ar    1  UNL1        0.0700
      9 C         142.8501  142.3038  168.8445 C.ar    1  UNL1        0.0116
     10 C         143.3630  142.4708  167.4448 C.ar    1  UNL1        0.0167
     11 C         142.6425  141.8231  166.2997 C.ar    1  UNL1        0.0658
     12 C         141.4090  141.0083  166.5542 C.ar    1  UNL1        0.0952
     13 N         140.6885  140.3606  165.4091 N.ar    1  UNL1       -0.2426
     14 C         139.4551  139.5459  165.6636 C.ar    1  UNL1        0.0989
     15 C         138.9422  139.3789  167.0633 C.ar    1  UNL1        0.0207
     16 C         139.6627  140.0266  168.2084 C.ar    1  UNL1        0.0038
     17 C         140.8961  140.8413  167.9539 C.ar    1  UNL1        0.0285
     18 N         140.5908  141.1550  171.8983 N.1     1  UNL1       -0.1908
     19 C         141.1037  141.3221  170.4986 C.1     1  UNL1        0.1005
     20 C         144.1442  141.6413  159.5943 C.3     1  UNL1        0.0437
     21 C         142.8638  140.8858  159.7944 C.ar    1  UNL1       -0.0206
     22 C         142.9003  139.4451  160.2106 C.ar    1  UNL1       -0.0011
     23 C         141.6200  138.6896  160.4106 C.ar    1  UNL1        0.0366
     24 C         140.3032  139.3748  160.1944 C.ar    1  UNL1        0.1385
     25 C         140.2668  140.8154  159.7782 C.ar    1  UNL1        0.0366
     26 C         141.5471  141.5709  159.5782 C.ar    1  UNL1       -0.0011
     27 O         139.0229  138.6193  160.3945 O.3     1  UNL1       -0.4754
     28 C         137.8439  139.2960  161.0286 C.3     1  UNL1        0.2068
     29 C         137.9482  139.8302  162.4264 C.3     1  UNL1        0.0646
     30 C         137.2129  141.0806  162.8082 C.3     1  UNL1        0.0759
     31 N         137.9743  142.3412  163.0930 N.3     1  UNL1       -0.2726
     32 C         138.0956  142.7154  164.5405 C.3     1  UNL1        0.0721
     33 C         138.7864  143.9017  165.1450 C.3     1  UNL1        0.0173
     34 C         139.5263  145.0069  164.4514 C.3     1  UNL1        0.0015
     35 C         139.7583  145.1987  162.9819 C.3     1  UNL1        0.0015
     36 C         139.3076  144.3326  161.8431 C.3     1  UNL1        0.0173
     37 C         138.5136  143.0609  161.8926 C.3     1  UNL1        0.0721
@<TRIPOS>BOND
     1    18    19    3
     2    19     8    1
     3     8     9   ar
     4     9    10   ar
     5    10    11   ar
     6    11     2    1
     7     2     3    1
     8     3     4    1
     9     4     5    1
    10     5     1    1
    11     1    20    1
    12    20    21    1
    13    21    22   ar
    14    22    23   ar
    15    23    24   ar
    16    24    27    1
    17    27    28    1
    18    28    29    1
    19    29    30    1
    20    30    31    1
    21    31    32    1
    22    32    33    1
    23    33    34    1
    24    34    35    1
    25    35    36    1
    26    36    37    1
    27    24    25   ar
    28    25    26   ar
    29     5     6    1
    30     6     7    1
    31    11    12   ar
    32    12    13   ar
    33    13    14   ar
    34    14    15   ar
    35    15    16   ar
    36    16    17   ar
    37    17     8   ar
    38     7     2    1
    39    17    12   ar
    40    26    21   ar
    41    37    31    1
@<TRIPOS>MOLECULE
*****
 37 41 0 0 0
SMALL
GASTEIGER

@<TRIPOS>ATOM
      1 C         139.5257  138.8451  158.9467 C.3     1  UNL1        0.0769
      2 N         139.4305  139.3060  163.4220 N.pl3   1  UNL1       -0.3035
      3 C         138.6496  140.2478  162.5543 C.3     1  UNL1        0.1082
      4 C         138.6813  140.0942  161.0625 C.3     1  UNL1        0.0938
      5 N         139.4940  138.9987  160.4385 N.3     1  UNL1       -0.2695
      6 C         140.2750  138.0568  161.3062 C.3     1  UNL1        0.0938
      7 C         140.2433  138.2104  162.7980 C.3     1  UNL1        0.1082
      8 C         139.3353  139.7669  167.8973 C.ar    1  UNL1        0.0700
      9 C         138.1653  139.1607  167.1807 C.ar    1  UNL1        0.0116
     10 C         138.1970  139.0070  165.6890 C.ar    1  UNL1        0.0167
     11 C         139.3988  139.4596  164.9138 C.ar    1  UNL1        0.0658
     12 C         140.5689  140.0659  165.6304 C.ar    1  UNL1        0.0952
     13 N         141.7706  140.5184  164.8552 N.ar    1  UNL1       -0.2426
     14 C         142.9406  141.1246  165.5718 C.ar    1  UNL1        0.0989
     15 C         142.9089  141.2783  167.0636 C.ar    1  UNL1        0.0207
     16 C         141.7071  140.8257  167.8388 C.ar    1  UNL1        0.0038
     17 C         140.5371  140.2195  167.1222 C.ar    1  UNL1        0.0285
     18 N         139.2718  140.0741  170.8809 N.1     1  UNL1       -0.1908
     19 C         139.3036  139.9205  169.3891 C.1     1  UNL1        0.1005
     20 C         140.5606  139.5716  158.1398 C.3     1  UNL1        0.0437
     21 C         141.5705  140.4433  158.8255 C.ar    1  UNL1       -0.0206
     22 C         142.8624  139.8553  159.3108 C.ar    1  UNL1       -0.0011
     23 C         143.8723  140.7270  159.9966 C.ar    1  UNL1        0.0366
     24 C         143.5903  142.1866  160.1971 C.ar    1  UNL1        0.1385
     25 C         142.2985  142.7744  159.7118 C.ar    1  UNL1        0.0366
     26 C         141.2886  141.9028  159.0260 C.ar    1  UNL1       -0.0011
     27 O         144.6002  143.0583  160.8829 O.3     1  UNL1       -0.4754
     28 C         144.4256  143.4127  162.3300 C.3     1  UNL1        0.2068
     29 C         143.5818  144.5908  162.7171 C.3     1  UNL1        0.0646
     30 C         142.7782  144.5542  163.9831 C.3     1  UNL1        0.0759
     31 N         141.2845  144.4322  163.9200 N.3     1  UNL1       -0.2726
     32 C         140.6359  143.7629  165.0954 C.3     1  UNL1        0.0721
     33 C         139.1796  143.4918  165.3308 C.3     1  UNL1        0.0173
     34 C         138.0120  143.8230  164.4492 C.3     1  UNL1        0.0015
     35 C         138.0125  144.5070  163.1143 C.3     1  UNL1        0.0015
     36 C         139.1807  145.0289  162.3314 C.3     1  UNL1        0.0173
     37 C         140.6369  144.9956  162.6899 C.3     1  UNL1        0.0721
@<TRIPOS>BOND
     1    18    19    3
     2    19     8    1
     3     8     9   ar
     4     9    10   ar
     5    10    11   ar
     6    11     2    1
     7     2     3    1
     8     3     4    1
     9     4     5    1
    10     5     1    1
    11     1    20    1
    12    20    21    1
    13    21    22   ar
    14    22    23   ar
    15    23    24   ar
    16    24    27    1
    17    27    28    1
    18    28    29    1
    19    29    30    1
    20    30    31    1
    21    31    32    1
    22    32    33    1
    23    33    34    1
    24    34    35    1
    25    35    36    1
    26    36    37    1
    27    24    25   ar
    28    25    26   ar
    29     5     6    1
    30     6     7    1
    31    11    12   ar
    32    12    13   ar
    33    13    14   ar
    34    14    15   ar
    35    15    16   ar
    36    16    17   ar
    37    17     8   ar
    38     7     2    1
    39    17    12   ar
    40    26    21   ar
    41    37    31    1
@<TRIPOS>MOLECULE
*****
 37 41 0 0 0
SMALL
GASTEIGER

@<TRIPOS>ATOM
      1 C         142.9764  138.6302  157.0312 C.3     1  UNL1        0.0769
      2 N         140.9156  138.5853  161.0313 N.pl3   1  UNL1       -0.3035
      3 C         140.1118  138.4517  159.7720 C.3     1  UNL1        0.1082
      4 C         140.7987  138.4667  158.4386 C.3     1  UNL1        0.0938
      5 N         142.2895  138.6152  158.3646 N.3     1  UNL1       -0.2695
      6 C         143.0934  138.7488  159.6240 C.3     1  UNL1        0.0938
      7 C         142.4065  138.7338  160.9573 C.3     1  UNL1        0.1082
      8 C         138.8548  138.5404  165.0315 C.ar    1  UNL1        0.0700
      9 C         139.7313  137.3925  164.6264 C.ar    1  UNL1        0.0116
     10 C         140.4182  137.4075  163.2930 C.ar    1  UNL1        0.0167
     11 C         140.2287  138.5703  162.3647 C.ar    1  UNL1        0.0658
     12 C         139.3522  139.7183  162.7698 C.ar    1  UNL1        0.0952
     13 N         139.1627  140.8811  161.8415 N.ar    1  UNL1       -0.2426
     14 C         138.2862  142.0290  162.2466 C.ar    1  UNL1        0.0989
     15 C         137.5993  142.0141  163.5799 C.ar    1  UNL1        0.0207
     16 C         137.7888  140.8512  164.5082 C.ar    1  UNL1        0.0038
     17 C         138.6653  139.7033  164.1032 C.ar    1  UNL1        0.0285
     18 N         137.4810  138.5104  167.6982 N.1     1  UNL1       -0.1908
     19 C         138.1679  138.5254  166.3649 C.1     1  UNL1        0.1005
     20 C         143.1128  139.9168  156.2722 C.3     1  UNL1        0.0437
     21 C         142.8555  141.2245  156.9604 C.ar    1  UNL1       -0.0206
     22 C         141.5165  141.8885  156.8327 C.ar    1  UNL1       -0.0011
     23 C         141.2592  143.1962  157.5209 C.ar    1  UNL1        0.0366
     24 C         142.3409  143.8399  158.3369 C.ar    1  UNL1        0.1385
     25 C         143.6798  143.1759  158.4646 C.ar    1  UNL1        0.0366
     26 C         143.9371  141.8682  157.7763 C.ar    1  UNL1       -0.0011
     27 O         142.0836  145.1477  159.0251 O.3     1  UNL1       -0.4754
     28 C         141.0849  145.2237  160.1418 C.3     1  UNL1        0.2068
     29 C         141.0152  144.1261  161.1617 C.3     1  UNL1        0.0646
     30 C         142.0529  144.0384  162.2412 C.3     1  UNL1        0.0759
     31 N         141.8384  143.1305  163.4159 N.3     1  UNL1       -0.2726
     32 C         140.9419  143.6627  164.4944 C.3     1  UNL1        0.0721
     33 C         140.5343  143.0062  165.7801 C.3     1  UNL1        0.0173
     34 C         140.9225  141.6557  166.3048 C.3     1  UNL1        0.0015
     35 C         141.8141  140.6279  165.6734 C.3     1  UNL1        0.0015
     36 C         142.5378  140.6969  164.3613 C.3     1  UNL1        0.0173
     37 C         142.5486  141.8107  163.3566 C.3     1  UNL1        0.0721
@<TRIPOS>BOND
     1    18    19    3
     2    19     8    1
     3     8     9   ar
     4     9    10   ar
     5    10    11   ar
     6    11     2    1
     7     2     3    1
     8     3     4    1
     9     4     5    1
    10     5     1    1
    11     1    20    1
    12    20    21    1
    13    21    22   ar
    14    22    23   ar
    15    23    24   ar
    16    24    27    1
    17    27    28    1
    18    28    29    1
    19    29    30    1
    20    30    31    1
    21    31    32    1
    22    32    33    1
    23    33    34    1
    24    34    35    1
    25    35    36    1
    26    36    37    1
    27    24    25   ar
    28    25    26   ar
    29     5     6    1
    30     6     7    1
    31    11    12   ar
    32    12    13   ar
    33    13    14   ar
    34    14    15   ar
    35    15    16   ar
    36    16    17   ar
    37    17     8   ar
    38     7     2    1
    39    17    12   ar
    40    26    21   ar
    41    37    31    1
@<TRIPOS>MOLECULE
*****
 37 41 0 0 0
SMALL
GASTEIGER

@<TRIPOS>ATOM
      1 C         141.0023  145.4666  159.7258 C.3     1  UNL1        0.0769
      2 N         141.7153  143.3685  163.6424 N.pl3   1  UNL1       -0.3035
      3 C         140.5631  144.3181  163.4991 C.3     1  UNL1        0.1082
      4 C         140.3254  145.0175  162.1936 C.3     1  UNL1        0.0938
      5 N         141.2400  144.7673  161.0313 N.3     1  UNL1       -0.2695
      6 C         142.3923  143.8176  161.1745 C.3     1  UNL1        0.0938
      7 C         142.6300  143.1182  162.4801 C.3     1  UNL1        0.1082
      8 C         142.4283  141.2704  167.5589 C.ar    1  UNL1        0.0700
      9 C         143.4306  142.2612  167.0456 C.ar    1  UNL1        0.0116
     10 C         143.1929  142.9606  165.7400 C.ar    1  UNL1        0.0167
     11 C         141.9530  142.6691  164.9479 C.ar    1  UNL1        0.0658
     12 C         140.9506  141.6783  165.4613 C.ar    1  UNL1        0.0952
     13 N         139.7107  141.3868  164.6691 N.ar    1  UNL1       -0.2426
     14 C         138.7084  140.3960  165.1825 C.ar    1  UNL1        0.0989
     15 C         138.9460  139.6966  166.4881 C.ar    1  UNL1        0.0207
     16 C         140.1860  139.9880  167.2802 C.ar    1  UNL1        0.0038
     17 C         141.1883  140.9789  166.7668 C.ar    1  UNL1        0.0285
     18 N         142.9036  139.8716  170.1700 N.1     1  UNL1       -0.1908
     19 C         142.6660  140.5710  168.8645 C.1     1  UNL1        0.1005
     20 C         140.3158  144.7465  158.6033 C.3     1  UNL1        0.0437
     21 C         139.9538  143.2984  158.7515 C.ar    1  UNL1       -0.0206
     22 C         140.8456  142.2395  158.1740 C.ar    1  UNL1       -0.0011
     23 C         140.4835  140.7914  158.3222 C.ar    1  UNL1        0.0366
     24 C         139.2297  140.4022  159.0479 C.ar    1  UNL1        0.1385
     25 C         138.3379  141.4612  159.6253 C.ar    1  UNL1        0.0366
     26 C         138.7000  142.9093  159.4771 C.ar    1  UNL1       -0.0011
     27 O         138.8676  138.9542  159.1960 O.3     1  UNL1       -0.4754
     28 C         139.3101  138.1908  160.4091 C.3     1  UNL1        0.2068
     29 C         140.0833  138.8847  161.4911 C.3     1  UNL1        0.0646
     30 C         140.4723  138.1373  162.7321 C.3     1  UNL1        0.0759
     31 N         141.7475  138.4787  163.4445 N.3     1  UNL1       -0.2726
     32 C         141.8936  137.9111  164.8253 C.3     1  UNL1        0.0721
     33 C         143.0363  138.0672  165.7844 C.3     1  UNL1        0.0173
     34 C         144.3150  138.8294  165.5997 C.3     1  UNL1        0.0015
     35 C         144.7668  139.6237  164.4103 C.3     1  UNL1        0.0015
     36 C         144.0515  139.8521  163.1117 C.3     1  UNL1        0.0173
     37 C         142.7078  139.3425  162.6819 C.3     1  UNL1        0.0721
@<TRIPOS>BOND
     1    18    19    3
     2    19     8    1
     3     8     9   ar
     4     9    10   ar
     5    10    11   ar
     6    11     2    1
     7     2     3    1
     8     3     4    1
     9     4     5    1
    10     5     1    1
    11     1    20    1
    12    20    21    1
    13    21    22   ar
    14    22    23   ar
    15    23    24   ar
    16    24    27    1
    17    27    28    1
    18    28    29    1
    19    29    30    1
    20    30    31    1
    21    31    32    1
    22    32    33    1
    23    33    34    1
    24    34    35    1
    25    35    36    1
    26    36    37    1
    27    24    25   ar
    28    25    26   ar
    29     5     6    1
    30     6     7    1
    31    11    12   ar
    32    12    13   ar
    33    13    14   ar
    34    14    15   ar
    35    15    16   ar
    36    16    17   ar
    37    17     8   ar
    38     7     2    1
    39    17    12   ar
    40    26    21   ar
    41    37    31    1
