@<TRIPOS>MOLECULE
*****
 39 43 0 0 0
SMALL
GASTEIGER

@<TRIPOS>ATOM
      1 N         137.8375  142.9407  163.0312 N.3     1  UNL1       -0.2711
      2 C         138.0341  142.6770  161.5678 C.3     1  UNL1        0.0735
      3 C         138.0650  141.2669  161.0572 C.3     1  UNL1        0.0331
      4 C         137.8992  140.1205  162.0102 C.3     1  UNL1        0.0570
      5 C         137.7025  140.3842  163.4737 C.3     1  UNL1        0.0331
      6 C         137.6717  141.7943  163.9842 C.3     1  UNL1        0.0735
      7 N         137.9300  138.7104  161.4997 N.3     1  UNL1       -0.2934
      8 H         137.3355  138.6840  160.6713 H       1  UNL1        0.1236
      9 C         139.2359  138.0801  161.1159 C.3     1  UNL1        0.1152
     10 C         140.4407  138.2581  161.9915 C.ar    1  UNL1        0.0765
     11 C         140.6111  137.4068  163.2147 C.ar    1  UNL1        0.0193
     12 C         141.8159  137.5847  164.0904 C.ar    1  UNL1        0.0411
     13 C         142.8503  138.6140  163.7429 C.ar    1  UNL1        0.1708
     14 C         142.6798  139.4653  162.5196 C.ar    1  UNL1        0.1682
     15 N         141.4750  139.2873  161.6440 N.ar    1  UNL1       -0.2304
     16 N         143.7141  140.4945  162.1721 N.am    1  UNL1       -0.2639
     17 C         144.9190  140.6725  163.0479 C.2     1  UNL1        0.2718
     18 O         145.9533  141.7017  162.7003 O.2     1  UNL1       -0.2707
     19 C         145.0894  139.8212  164.2710 C.3     1  UNL1        0.2898
     20 O         144.0550  138.7919  164.6186 O.3     1  UNL1       -0.4628
     21 H         143.6023  141.0533  161.3693 H       1  UNL1        0.1565
     22 C         137.8067  144.3509  163.5417 C.3     1  UNL1        0.0942
     23 C         138.9547  144.8819  164.3479 C.3     1  UNL1        0.1157
     24 C         141.0852  142.2752  167.3339 C.ar    1  UNL1        0.1071
     25 C         142.4806  141.8010  167.0545 C.ar    1  UNL1        0.0215
     26 C         143.1658  142.1958  165.7799 C.ar    1  UNL1        0.0395
     27 C         142.4557  143.0647  164.7846 C.ar    1  UNL1        0.1529
     28 C         141.0603  143.5388  165.0639 C.ar    1  UNL1        0.0894
     29 C         140.3751  143.1441  166.3386 C.ar    1  UNL1        0.0363
     30 N         140.3501  144.4078  164.0686 N.am    1  UNL1       -0.2515
     31 C         141.0353  144.8025  162.7940 C.2     1  UNL1        0.2740
     32 O         140.3252  145.6714  161.7987 O.2     1  UNL1       -0.2705
     33 C         142.4308  144.3283  162.5147 C.3     1  UNL1        0.2900
     34 O         143.1409  143.4594  163.5100 O.3     1  UNL1       -0.4643
     35 S         140.4000  141.8805  168.6085 S.O2    1  UNL1        0.0087
     36 O         140.4741  140.4386  168.2018 O.2     1  UNL1       -0.1686
     37 O         140.3259  143.3224  169.0152 O.2     1  UNL1       -0.1686
     38 C         139.9315  140.1176  170.4585 C.3     1  UNL1        0.0276
     39 C         139.7148  141.4858  169.8831 C.3     1  UNL1        0.1560
@<TRIPOS>BOND
     1    38    39    1
     2    39    35    1
     3    35    36    2
     4    35    37    2
     5    35    24    1
     6    24    25   ar
     7    25    26   ar
     8    26    27   ar
     9    27    28   ar
    10    28    29   ar
    11    28    30    1
    12    30    23    1
    13    23    22    1
    14    22     1    1
    15     1     2    1
    16     2     3    1
    17     3     4    1
    18     4     7    1
    19     7     9    1
    20     9    10    1
    21    10    11   ar
    22    11    12   ar
    23    12    13   ar
    24    13    14   ar
    25    14    15   ar
    26    14    16    1
    27    16    17   am
    28    17    18    2
    29    17    19    1
    30    19    20    1
    31     4     5    1
    32     5     6    1
    33    30    31   am
    34    31    32    2
    35    31    33    1
    36    33    34    1
    37    29    24   ar
    38     6     1    1
    39    34    27    1
    40    15    10   ar
    41    20    13    1
    42     7     8    1
    43    16    21    1
@<TRIPOS>MOLECULE
*****
 39 43 0 0 0
SMALL
GASTEIGER

@<TRIPOS>ATOM
      1 N         142.0655  138.1446  164.1507 N.3     1  UNL1       -0.2711
      2 C         142.2888  138.4549  162.7003 C.3     1  UNL1        0.0735
      3 C         143.4685  139.2823  162.2834 C.3     1  UNL1        0.0331
      4 C         144.4248  139.7993  163.3168 C.3     1  UNL1        0.0570
      5 C         144.2014  139.4889  164.7673 C.3     1  UNL1        0.0331
      6 C         143.0218  138.6616  165.1842 C.3     1  UNL1        0.0735
      7 N         145.6045  140.6267  162.8999 N.3     1  UNL1       -0.2934
      8 H         145.6329  140.6064  161.8805 H       1  UNL1        0.1236
      9 C         145.6911  142.0679  163.3069 C.3     1  UNL1        0.1152
     10 C         144.4866  142.9540  163.1897 C.ar    1  UNL1        0.0765
     11 C         143.8927  143.5784  164.4174 C.ar    1  UNL1        0.0193
     12 C         142.6881  144.4646  164.3002 C.ar    1  UNL1        0.0411
     13 C         142.0775  144.7264  162.9553 C.ar    1  UNL1        0.1708
     14 C         142.6715  144.1019  161.7276 C.ar    1  UNL1        0.1682
     15 N         143.8761  143.2158  161.8448 N.ar    1  UNL1       -0.2304
     16 N         142.0610  144.3637  160.3827 N.am    1  UNL1       -0.2639
     17 C         140.8564  145.2499  160.2656 C.2     1  UNL1        0.2718
     18 O         140.2458  145.5116  158.9207 O.2     1  UNL1       -0.2707
     19 C         140.2624  145.8743  161.4932 C.3     1  UNL1        0.2898
     20 O         140.8730  145.6126  162.8381 O.3     1  UNL1       -0.4628
     21 H         142.4508  143.9538  159.5769 H       1  UNL1        0.1565
     22 C         140.8858  137.3172  164.5677 C.3     1  UNL1        0.0942
     23 C         139.6286  137.9868  165.0378 C.3     1  UNL1        0.1157
     24 C         140.3755  142.0795  166.7530 C.ar    1  UNL1        0.1071
     25 C         139.8625  143.2961  166.0411 C.ar    1  UNL1        0.0215
     26 C         139.1005  143.1484  164.7575 C.ar    1  UNL1        0.0395
     27 C         138.8516  141.7842  164.1858 C.ar    1  UNL1        0.1529
     28 C         139.3646  140.5677  164.8977 C.ar    1  UNL1        0.0894
     29 C         140.1266  140.7153  166.1812 C.ar    1  UNL1        0.0363
     30 N         139.1156  139.2034  164.3259 N.am    1  UNL1       -0.2515
     31 C         138.3536  139.0557  163.0424 C.2     1  UNL1        0.2740
     32 O         138.1047  137.6915  162.4706 O.2     1  UNL1       -0.2705
     33 C         137.8406  140.2724  162.3305 C.3     1  UNL1        0.2900
     34 O         138.0896  141.6366  162.9022 O.3     1  UNL1       -0.4643
     35 S         141.1375  142.2272  168.0365 S.O2    1  UNL1        0.0087
     36 O         140.2414  143.3611  168.4381 O.2     1  UNL1       -0.1686
     37 O         142.0336  141.0933  167.6350 O.2     1  UNL1       -0.1686
     38 C         143.3960  142.2735  169.3198 C.3     1  UNL1        0.0276
     39 C         141.8995  142.3749  169.3201 C.3     1  UNL1        0.1560
@<TRIPOS>BOND
     1    38    39    1
     2    39    35    1
     3    35    36    2
     4    35    37    2
     5    35    24    1
     6    24    25   ar
     7    25    26   ar
     8    26    27   ar
     9    27    28   ar
    10    28    29   ar
    11    28    30    1
    12    30    23    1
    13    23    22    1
    14    22     1    1
    15     1     2    1
    16     2     3    1
    17     3     4    1
    18     4     7    1
    19     7     9    1
    20     9    10    1
    21    10    11   ar
    22    11    12   ar
    23    12    13   ar
    24    13    14   ar
    25    14    15   ar
    26    14    16    1
    27    16    17   am
    28    17    18    2
    29    17    19    1
    30    19    20    1
    31     4     5    1
    32     5     6    1
    33    30    31   am
    34    31    32    2
    35    31    33    1
    36    33    34    1
    37    29    24   ar
    38     6     1    1
    39    34    27    1
    40    15    10   ar
    41    20    13    1
    42     7     8    1
    43    16    21    1
@<TRIPOS>MOLECULE
*****
 39 43 0 0 0
SMALL
GASTEIGER

@<TRIPOS>ATOM
      1 N         142.7070  144.2395  163.3051 N.3     1  UNL1       -0.2711
      2 C         142.5215  143.8846  161.8596 C.3     1  UNL1        0.0735
      3 C         141.1398  143.7599  161.2892 C.3     1  UNL1        0.0331
      4 C         139.9436  143.9902  162.1644 C.3     1  UNL1        0.0570
      5 C         140.1291  144.3451  163.6099 C.3     1  UNL1        0.0331
      6 C         141.5108  144.4698  164.1803 C.3     1  UNL1        0.0735
      7 N         138.5619  143.8655  161.5940 N.3     1  UNL1       -0.2934
      8 H         138.4909  144.5506  160.8417 H       1  UNL1        0.1236
      9 C         138.0983  142.5547  161.0311 C.3     1  UNL1        0.1152
     10 C         138.2961  141.2904  161.8136 C.ar    1  UNL1        0.0765
     11 C         138.7893  140.0521  161.1258 C.ar    1  UNL1        0.0193
     12 C         138.9872  138.7877  161.9084 C.ar    1  UNL1        0.0411
     13 C         138.6918  138.7618  163.3788 C.ar    1  UNL1        0.1708
     14 C         138.1986  140.0002  164.0666 C.ar    1  UNL1        0.1682
     15 N         138.0008  141.2645  163.2840 N.ar    1  UNL1       -0.2304
     16 N         137.9032  139.9743  165.5370 N.am    1  UNL1       -0.2639
     17 C         138.1010  138.7099  166.3196 C.2     1  UNL1        0.2718
     18 O         137.8056  138.6840  167.7900 O.2     1  UNL1       -0.2707
     19 C         138.5942  137.4716  165.6317 C.3     1  UNL1        0.2898
     20 O         138.8896  137.4975  164.1613 O.3     1  UNL1       -0.4628
     21 H         137.5795  140.7871  165.9885 H       1  UNL1        0.1565
     22 C         144.0888  144.3642  163.8755 C.3     1  UNL1        0.0942
     23 C         144.6400  143.2774  164.7502 C.3     1  UNL1        0.1157
     24 C         141.8687  141.1674  167.5993 C.ar    1  UNL1        0.1071
     25 C         141.4847  139.7386  167.3522 C.ar    1  UNL1        0.0215
     26 C         142.0244  139.0131  166.1553 C.ar    1  UNL1        0.0395
     27 C         142.9482  139.7165  165.2056 C.ar    1  UNL1        0.1529
     28 C         143.3322  141.1452  165.4528 C.ar    1  UNL1        0.0894
     29 C         142.7924  141.8707  166.6496 C.ar    1  UNL1        0.0363
     30 N         144.2560  141.8486  164.5030 N.am    1  UNL1       -0.2515
     31 C         144.7957  141.1232  163.3062 C.2     1  UNL1        0.2740
     32 O         145.7195  141.8265  162.3565 O.2     1  UNL1       -0.2705
     33 C         144.4117  139.6943  163.0591 C.3     1  UNL1        0.2900
     34 O         143.4879  138.9910  164.0088 O.3     1  UNL1       -0.4643
     35 S         141.3289  141.8928  168.7961 S.O2    1  UNL1        0.0087
     36 O         142.6836  142.4858  169.0476 O.2     1  UNL1       -0.1686
     37 O         139.9742  141.2998  168.5446 O.2     1  UNL1       -0.1686
     38 C         140.3710  144.0538  169.8742 C.3     1  UNL1        0.0276
     39 C         140.7891  142.6182  169.9929 C.3     1  UNL1        0.1560
@<TRIPOS>BOND
     1    38    39    1
     2    39    35    1
     3    35    36    2
     4    35    37    2
     5    35    24    1
     6    24    25   ar
     7    25    26   ar
     8    26    27   ar
     9    27    28   ar
    10    28    29   ar
    11    28    30    1
    12    30    23    1
    13    23    22    1
    14    22     1    1
    15     1     2    1
    16     2     3    1
    17     3     4    1
    18     4     7    1
    19     7     9    1
    20     9    10    1
    21    10    11   ar
    22    11    12   ar
    23    12    13   ar
    24    13    14   ar
    25    14    15   ar
    26    14    16    1
    27    16    17   am
    28    17    18    2
    29    17    19    1
    30    19    20    1
    31     4     5    1
    32     5     6    1
    33    30    31   am
    34    31    32    2
    35    31    33    1
    36    33    34    1
    37    29    24   ar
    38     6     1    1
    39    34    27    1
    40    15    10   ar
    41    20    13    1
    42     7     8    1
    43    16    21    1
@<TRIPOS>MOLECULE
*****
 39 43 0 0 0
SMALL
GASTEIGER

@<TRIPOS>ATOM
      1 N         143.5337  142.1428  163.7624 N.3     1  UNL1       -0.2711
      2 C         143.6662  142.8275  162.4344 C.3     1  UNL1        0.0735
      3 C         142.9115  144.0957  162.1659 C.3     1  UNL1        0.0331
      4 C         142.0244  144.6792  163.2254 C.3     1  UNL1        0.0570
      5 C         141.8919  143.9944  164.5534 C.3     1  UNL1        0.0331
      6 C         142.6466  142.7262  164.8219 C.3     1  UNL1        0.0735
      7 N         141.2697  145.9475  162.9569 N.3     1  UNL1       -0.2934
      8 H         141.8512  146.5103  162.3361 H       1  UNL1        0.1236
      9 C         139.9044  145.8911  162.3383 C.3     1  UNL1        0.1152
     10 C         139.2172  144.5702  162.1568 C.ar    1  UNL1        0.0765
     11 C         138.3471  144.0213  163.2483 C.ar    1  UNL1        0.0193
     12 C         137.6598  142.7003  163.0669 C.ar    1  UNL1        0.0411
     13 C         137.8427  141.9284  161.7938 C.ar    1  UNL1        0.1708
     14 C         138.7129  142.4774  160.7023 C.ar    1  UNL1        0.1682
     15 N         139.4001  143.7982  160.8838 N.ar    1  UNL1       -0.2304
     16 N         138.8959  141.7054  159.4292 N.am    1  UNL1       -0.2639
     17 C         138.2086  140.3845  159.2478 C.2     1  UNL1        0.2718
     18 O         138.3916  139.6125  157.9747 O.2     1  UNL1       -0.2707
     19 C         137.3385  139.8355  160.3393 C.3     1  UNL1        0.2898
     20 O         137.1556  140.6075  161.6123 O.3     1  UNL1       -0.4628
     21 H         139.4670  142.0657  158.7128 H       1  UNL1        0.1565
     22 C         144.2884  140.8745  164.0309 C.3     1  UNL1        0.0942
     23 C         143.6909  139.8187  164.9131 C.3     1  UNL1        0.1157
     24 C         139.9255  140.0175  167.3692 C.ar    1  UNL1        0.1071
     25 C         138.7006  139.2743  166.9254 C.ar    1  UNL1        0.0215
     26 C         138.7307  138.4648  165.6629 C.ar    1  UNL1        0.0395
     27 C         139.9858  138.3986  164.8443 C.ar    1  UNL1        0.1529
     28 C         141.2108  139.1418  165.2880 C.ar    1  UNL1        0.0894
     29 C         141.1806  139.9512  166.5505 C.ar    1  UNL1        0.0363
     30 N         142.4660  139.0755  164.4694 N.am    1  UNL1       -0.2515
     31 C         142.4961  138.2661  163.2069 C.2     1  UNL1        0.2740
     32 O         143.7512  138.1998  162.3882 O.2     1  UNL1       -0.2705
     33 C         141.2710  137.5228  162.7631 C.3     1  UNL1        0.2900
     34 O         140.0159  137.5891  163.5818 O.3     1  UNL1       -0.4643
     35 S         139.8954  140.8270  168.6317 S.O2    1  UNL1        0.0087
     36 O         140.6898  141.9066  167.9584 O.2     1  UNL1       -0.1686
     37 O         139.1011  139.7473  169.3050 O.2     1  UNL1       -0.1686
     38 C         140.2212  143.0932  169.8597 C.3     1  UNL1        0.0276
     39 C         139.8653  141.6365  169.8942 C.3     1  UNL1        0.1560
@<TRIPOS>BOND
     1    38    39    1
     2    39    35    1
     3    35    36    2
     4    35    37    2
     5    35    24    1
     6    24    25   ar
     7    25    26   ar
     8    26    27   ar
     9    27    28   ar
    10    28    29   ar
    11    28    30    1
    12    30    23    1
    13    23    22    1
    14    22     1    1
    15     1     2    1
    16     2     3    1
    17     3     4    1
    18     4     7    1
    19     7     9    1
    20     9    10    1
    21    10    11   ar
    22    11    12   ar
    23    12    13   ar
    24    13    14   ar
    25    14    15   ar
    26    14    16    1
    27    16    17   am
    28    17    18    2
    29    17    19    1
    30    19    20    1
    31     4     5    1
    32     5     6    1
    33    30    31   am
    34    31    32    2
    35    31    33    1
    36    33    34    1
    37    29    24   ar
    38     6     1    1
    39    34    27    1
    40    15    10   ar
    41    20    13    1
    42     7     8    1
    43    16    21    1
@<TRIPOS>MOLECULE
*****
 39 43 0 0 0
SMALL
GASTEIGER

@<TRIPOS>ATOM
      1 N         138.4002  140.0688  164.2422 N.3     1  UNL1       -0.2711
      2 C         138.1851  140.2256  162.7660 C.3     1  UNL1        0.0735
      3 C         137.9332  141.5853  162.1850 C.3     1  UNL1        0.0331
      4 C         137.8963  142.7883  163.0802 C.3     1  UNL1        0.0570
      5 C         138.1114  142.6315  164.5564 C.3     1  UNL1        0.0331
      6 C         138.3633  141.2718  165.1374 C.3     1  UNL1        0.0735
      7 N         137.6444  144.1481  162.4992 N.3     1  UNL1       -0.2934
      8 H         136.8565  144.5455  163.0108 H       1  UNL1        0.1236
      9 C         138.7321  145.1810  162.5087 C.3     1  UNL1        0.1152
     10 C         140.1653  144.7622  162.3659 C.ar    1  UNL1        0.0765
     11 C         141.1898  145.2474  163.3482 C.ar    1  UNL1        0.0193
     12 C         142.6231  144.8286  163.2054 C.ar    1  UNL1        0.0411
     13 C         143.0318  143.9247  162.0803 C.ar    1  UNL1        0.1708
     14 C         142.0072  143.4395  161.0980 C.ar    1  UNL1        0.1682
     15 N         140.5740  143.8583  161.2408 N.ar    1  UNL1       -0.2304
     16 N         142.4160  142.5356  159.9729 N.am    1  UNL1       -0.2639
     17 C         143.8493  142.1168  159.8301 C.2     1  UNL1        0.2718
     18 O         144.2580  141.2129  158.7050 O.2     1  UNL1       -0.2707
     19 C         144.8738  142.6020  160.8124 C.3     1  UNL1        0.2898
     20 O         144.4651  143.5059  161.9375 O.3     1  UNL1       -0.4628
     21 H         141.7435  142.2171  159.3282 H       1  UNL1        0.1565
     22 C         138.6521  138.7090  164.8232 C.3     1  UNL1        0.0942
     23 C         140.0486  138.2922  165.1785 C.3     1  UNL1        0.1157
     24 C         142.2796  141.7454  167.0082 C.ar    1  UNL1        0.1071
     25 C         143.4486  142.3491  166.2880 C.ar    1  UNL1        0.0215
     26 C         143.8740  141.8018  164.9578 C.ar    1  UNL1        0.0395
     27 C         143.1304  140.6507  164.3478 C.ar    1  UNL1        0.1529
     28 C         141.9613  140.0470  165.0681 C.ar    1  UNL1        0.0894
     29 C         141.5359  140.5944  166.3983 C.ar    1  UNL1        0.0363
     30 N         141.2176  138.8959  164.4582 N.am    1  UNL1       -0.2515
     31 C         141.6430  138.3486  163.1280 C.2     1  UNL1        0.2740
     32 O         140.8994  137.1975  162.5180 O.2     1  UNL1       -0.2705
     33 C         142.8121  138.9523  162.4077 C.3     1  UNL1        0.2900
     34 O         143.5558  140.1034  163.0176 O.3     1  UNL1       -0.4643
     35 S         141.8542  142.2927  168.3385 S.O2    1  UNL1        0.0087
     36 O         143.2799  142.6371  168.6527 O.2     1  UNL1       -0.1686
     37 O         140.4284  141.9483  168.0242 O.2     1  UNL1       -0.1686
     38 C         140.0223  142.6361  170.1485 C.3     1  UNL1        0.0276
     39 C         141.4288  142.8401  169.6687 C.3     1  UNL1        0.1560
@<TRIPOS>BOND
     1    38    39    1
     2    39    35    1
     3    35    36    2
     4    35    37    2
     5    35    24    1
     6    24    25   ar
     7    25    26   ar
     8    26    27   ar
     9    27    28   ar
    10    28    29   ar
    11    28    30    1
    12    30    23    1
    13    23    22    1
    14    22     1    1
    15     1     2    1
    16     2     3    1
    17     3     4    1
    18     4     7    1
    19     7     9    1
    20     9    10    1
    21    10    11   ar
    22    11    12   ar
    23    12    13   ar
    24    13    14   ar
    25    14    15   ar
    26    14    16    1
    27    16    17   am
    28    17    18    2
    29    17    19    1
    30    19    20    1
    31     4     5    1
    32     5     6    1
    33    30    31   am
    34    31    32    2
    35    31    33    1
    36    33    34    1
    37    29    24   ar
    38     6     1    1
    39    34    27    1
    40    15    10   ar
    41    20    13    1
    42     7     8    1
    43    16    21    1
@<TRIPOS>MOLECULE
*****
 39 43 0 0 0
SMALL
GASTEIGER

@<TRIPOS>ATOM
      1 N         138.9171  143.0417  162.8072 N.3     1  UNL1       -0.2711
      2 C         139.5654  143.3430  164.1259 C.3     1  UNL1        0.0735
      3 C         140.8466  144.1217  164.1713 C.3     1  UNL1        0.0331
      4 C         141.4795  144.5992  162.8979 C.3     1  UNL1        0.0570
      5 C         140.8312  144.2979  161.5792 C.3     1  UNL1        0.0331
      6 C         139.5500  143.5192  161.5339 C.3     1  UNL1        0.0735
      7 N         142.7607  145.3780  162.9432 N.3     1  UNL1       -0.2934
      8 H         142.6921  146.0117  163.7395 H       1  UNL1        0.1236
      9 C         144.0709  144.6594  163.0735 C.3     1  UNL1        0.1152
     10 C         144.1248  143.1668  162.9345 C.ar    1  UNL1        0.0765
     11 C         144.4902  142.3164  164.1148 C.ar    1  UNL1        0.0193
     12 C         144.5441  140.8238  163.9759 C.ar    1  UNL1        0.0411
     13 C         144.2326  140.1817  162.6565 C.ar    1  UNL1        0.1708
     14 C         143.8672  141.0322  161.4762 C.ar    1  UNL1        0.1682
     15 N         143.8133  142.5247  161.6152 N.ar    1  UNL1       -0.2304
     16 N         143.5557  140.3900  160.1568 N.am    1  UNL1       -0.2639
     17 C         143.6096  138.8974  160.0179 C.2     1  UNL1        0.2718
     18 O         143.2981  138.2553  158.6985 O.2     1  UNL1       -0.2707
     19 C         143.9750  138.0470  161.1982 C.3     1  UNL1        0.2898
     20 O         144.2865  138.6891  162.5176 O.3     1  UNL1       -0.4628
     21 H         143.3159  140.9482  159.3821 H       1  UNL1        0.1565
     22 C         137.6359  142.2629  162.7619 C.3     1  UNL1        0.0942
     23 C         137.5694  140.8925  163.3681 C.3     1  UNL1        0.1157
     24 C         140.9492  139.3596  165.9131 C.ar    1  UNL1        0.1071
     25 C         141.8400  138.2679  165.3986 C.ar    1  UNL1        0.0215
     26 C         141.6042  137.6872  164.0359 C.ar    1  UNL1        0.0395
     27 C         140.4776  138.1981  163.1876 C.ar    1  UNL1        0.1529
     28 C         139.5868  139.2898  163.7020 C.ar    1  UNL1        0.0894
     29 C         139.8226  139.8705  165.0648 C.ar    1  UNL1        0.0363
     30 N         138.4601  139.8008  162.8537 N.am    1  UNL1       -0.2515
     31 C         138.2243  139.2200  161.4909 C.2     1  UNL1        0.2740
     32 O         137.0977  139.7310  160.6426 O.2     1  UNL1       -0.2705
     33 C         139.1151  138.1283  160.9765 C.3     1  UNL1        0.2900
     34 O         140.2417  137.6174  161.8248 O.3     1  UNL1       -0.4643
     35 S         141.1850  139.9404  167.2758 S.O2    1  UNL1        0.0087
     36 O         139.7111  139.8946  167.5504 O.2     1  UNL1       -0.1686
     37 O         142.6590  139.9861  167.0013 O.2     1  UNL1       -0.1686
     38 C         141.5366  139.6166  169.8296 C.3     1  UNL1        0.0276
     39 C         141.4209  140.5211  168.6386 C.3     1  UNL1        0.1560
@<TRIPOS>BOND
     1    38    39    1
     2    39    35    1
     3    35    36    2
     4    35    37    2
     5    35    24    1
     6    24    25   ar
     7    25    26   ar
     8    26    27   ar
     9    27    28   ar
    10    28    29   ar
    11    28    30    1
    12    30    23    1
    13    23    22    1
    14    22     1    1
    15     1     2    1
    16     2     3    1
    17     3     4    1
    18     4     7    1
    19     7     9    1
    20     9    10    1
    21    10    11   ar
    22    11    12   ar
    23    12    13   ar
    24    13    14   ar
    25    14    15   ar
    26    14    16    1
    27    16    17   am
    28    17    18    2
    29    17    19    1
    30    19    20    1
    31     4     5    1
    32     5     6    1
    33    30    31   am
    34    31    32    2
    35    31    33    1
    36    33    34    1
    37    29    24   ar
    38     6     1    1
    39    34    27    1
    40    15    10   ar
    41    20    13    1
    42     7     8    1
    43    16    21    1
@<TRIPOS>MOLECULE
*****
 39 43 0 0 0
SMALL
GASTEIGER

@<TRIPOS>ATOM
      1 N         140.8668  144.0516  163.6786 N.3     1  UNL1       -0.2711
      2 C         141.3224  143.4242  164.9627 C.3     1  UNL1        0.0735
      3 C         142.7564  143.0180  165.1315 C.3     1  UNL1        0.0331
      4 C         143.7348  143.2393  164.0163 C.3     1  UNL1        0.0570
      5 C         143.2792  143.8667  162.7323 C.3     1  UNL1        0.0331
      6 C         141.8452  144.2729  162.5634 C.3     1  UNL1        0.0735
      7 N         145.1689  142.8331  164.1852 N.3     1  UNL1       -0.2934
      8 H         145.4625  143.1640  165.1043 H       1  UNL1        0.1236
      9 C         145.5530  141.3854  164.1032 C.3     1  UNL1        0.1152
     10 C         144.7515  140.4437  163.2542 C.ar    1  UNL1        0.0765
     11 C         143.8899  139.3998  163.9006 C.ar    1  UNL1        0.0193
     12 C         143.0883  138.4581  163.0517 C.ar    1  UNL1        0.0411
     13 C         143.1483  138.5603  161.5564 C.ar    1  UNL1        0.1708
     14 C         144.0100  139.6043  160.9100 C.ar    1  UNL1        0.1682
     15 N         144.8115  140.5459  161.7589 N.ar    1  UNL1       -0.2304
     16 N         144.0701  139.7065  159.4147 N.am    1  UNL1       -0.2639
     17 C         143.2684  138.7647  158.5658 C.2     1  UNL1        0.2718
     18 O         143.3285  138.8669  157.0705 O.2     1  UNL1       -0.2707
     19 C         142.4068  137.7208  159.2122 C.3     1  UNL1        0.2898
     20 O         142.3468  137.6186  160.7075 O.3     1  UNL1       -0.4628
     21 H         144.6356  140.3916  158.9904 H       1  UNL1        0.1565
     22 C         139.4327  144.4578  163.5098 C.3     1  UNL1        0.0942
     23 C         138.3348  143.5057  163.8814 C.3     1  UNL1        0.1157
     24 C         139.2180  139.9093  166.4380 C.ar    1  UNL1        0.1071
     25 C         139.1818  138.5352  165.8376 C.ar    1  UNL1        0.0215
     26 C         138.8512  138.3599  164.3851 C.ar    1  UNL1        0.0395
     27 C         138.5568  139.5586  163.5329 C.ar    1  UNL1        0.1529
     28 C         138.5930  140.9327  164.1332 C.ar    1  UNL1        0.0894
     29 C         138.9236  141.1081  165.5858 C.ar    1  UNL1        0.0363
     30 N         138.2986  142.1316  163.2810 N.am    1  UNL1       -0.2515
     31 C         137.9680  141.9562  161.8285 C.2     1  UNL1        0.2740
     32 O         137.6736  143.1550  160.9763 O.2     1  UNL1       -0.2705
     33 C         137.9318  140.5820  161.2281 C.3     1  UNL1        0.2900
     34 O         138.2262  139.3833  162.0803 O.3     1  UNL1       -0.4643
     35 S         139.5486  140.0847  167.8906 S.O2    1  UNL1        0.0087
     36 O         138.4107  139.1794  168.2588 O.2     1  UNL1       -0.1686
     37 O         140.6866  140.9899  167.5223 O.2     1  UNL1       -0.1686
     38 C         141.1342  139.6600  169.9044 C.3     1  UNL1        0.0276
     39 C         139.8792  140.2600  169.3431 C.3     1  UNL1        0.1560
@<TRIPOS>BOND
     1    38    39    1
     2    39    35    1
     3    35    36    2
     4    35    37    2
     5    35    24    1
     6    24    25   ar
     7    25    26   ar
     8    26    27   ar
     9    27    28   ar
    10    28    29   ar
    11    28    30    1
    12    30    23    1
    13    23    22    1
    14    22     1    1
    15     1     2    1
    16     2     3    1
    17     3     4    1
    18     4     7    1
    19     7     9    1
    20     9    10    1
    21    10    11   ar
    22    11    12   ar
    23    12    13   ar
    24    13    14   ar
    25    14    15   ar
    26    14    16    1
    27    16    17   am
    28    17    18    2
    29    17    19    1
    30    19    20    1
    31     4     5    1
    32     5     6    1
    33    30    31   am
    34    31    32    2
    35    31    33    1
    36    33    34    1
    37    29    24   ar
    38     6     1    1
    39    34    27    1
    40    15    10   ar
    41    20    13    1
    42     7     8    1
    43    16    21    1
@<TRIPOS>MOLECULE
*****
 39 43 0 0 0
SMALL
GASTEIGER

@<TRIPOS>ATOM
      1 N         142.0393  138.2553  164.1368 N.3     1  UNL1       -0.2711
      2 C         140.6474  138.2010  164.6934 C.3     1  UNL1        0.0735
      3 C         139.4741  138.0717  163.7679 C.3     1  UNL1        0.0331
      4 C         139.6927  137.9967  162.2858 C.3     1  UNL1        0.0570
      5 C         141.0845  138.0510  161.7292 C.3     1  UNL1        0.0331
      6 C         142.2578  138.1802  162.6547 C.3     1  UNL1        0.0735
      7 N         138.5193  137.8674  161.3602 N.3     1  UNL1       -0.2934
      8 H         138.0046  137.0364  161.6516 H       1  UNL1        0.1236
      9 C         137.5201  138.9813  161.2559 C.3     1  UNL1        0.1152
     10 C         137.9467  140.3974  161.5060 C.ar    1  UNL1        0.0765
     11 C         137.3876  141.1538  162.6744 C.ar    1  UNL1        0.0193
     12 C         137.8141  142.5700  162.9245 C.ar    1  UNL1        0.0411
     13 C         138.7998  143.2297  162.0062 C.ar    1  UNL1        0.1708
     14 C         139.3590  142.4732  160.8378 C.ar    1  UNL1        0.1682
     15 N         138.9324  141.0571  160.5877 N.ar    1  UNL1       -0.2304
     16 N         140.3446  143.1328  159.9195 N.am    1  UNL1       -0.2639
     17 C         140.7712  144.5490  160.1696 C.2     1  UNL1        0.2718
     18 O         141.7569  145.2087  159.2514 O.2     1  UNL1       -0.2707
     19 C         140.2121  145.3055  161.3380 C.3     1  UNL1        0.2898
     20 O         139.2264  144.6458  162.2563 O.3     1  UNL1       -0.4628
     21 H         140.7116  142.6363  159.1526 H       1  UNL1        0.1565
     22 C         143.2126  138.3845  165.0624 C.3     1  UNL1        0.0942
     23 C         143.9249  139.6983  165.1913 C.3     1  UNL1        0.1157
     24 C         140.5964  141.9452  167.2218 C.ar    1  UNL1        0.1071
     25 C         140.0230  143.1752  166.5828 C.ar    1  UNL1        0.0215
     26 C         140.5590  143.6562  165.2670 C.ar    1  UNL1        0.0395
     27 C         141.6685  142.9072  164.5902 C.ar    1  UNL1        0.1529
     28 C         142.2419  141.6773  165.2292 C.ar    1  UNL1        0.0894
     29 C         141.7059  141.1963  166.5450 C.ar    1  UNL1        0.0363
     30 N         143.3515  140.9283  164.5524 N.am    1  UNL1       -0.2515
     31 C         143.8875  141.4093  163.2366 C.2     1  UNL1        0.2740
     32 O         144.9970  140.6603  162.5598 O.2     1  UNL1       -0.2705
     33 C         143.3140  142.6393  162.5976 C.3     1  UNL1        0.2900
     34 O         142.2045  143.3882  163.2744 O.3     1  UNL1       -0.4643
     35 S         140.0604  141.4642  168.5375 S.O2    1  UNL1        0.0087
     36 O         140.3467  142.8057  169.1446 O.2     1  UNL1       -0.1686
     37 O         139.7741  140.1227  167.9305 O.2     1  UNL1       -0.1686
     38 C         140.3381  140.0482  170.6980 C.3     1  UNL1        0.0276
     39 C         139.5244  140.9832  169.8533 C.3     1  UNL1        0.1560
@<TRIPOS>BOND
     1    38    39    1
     2    39    35    1
     3    35    36    2
     4    35    37    2
     5    35    24    1
     6    24    25   ar
     7    25    26   ar
     8    26    27   ar
     9    27    28   ar
    10    28    29   ar
    11    28    30    1
    12    30    23    1
    13    23    22    1
    14    22     1    1
    15     1     2    1
    16     2     3    1
    17     3     4    1
    18     4     7    1
    19     7     9    1
    20     9    10    1
    21    10    11   ar
    22    11    12   ar
    23    12    13   ar
    24    13    14   ar
    25    14    15   ar
    26    14    16    1
    27    16    17   am
    28    17    18    2
    29    17    19    1
    30    19    20    1
    31     4     5    1
    32     5     6    1
    33    30    31   am
    34    31    32    2
    35    31    33    1
    36    33    34    1
    37    29    24   ar
    38     6     1    1
    39    34    27    1
    40    15    10   ar
    41    20    13    1
    42     7     8    1
    43    16    21    1
@<TRIPOS>MOLECULE
*****
 39 43 0 0 0
SMALL
GASTEIGER

@<TRIPOS>ATOM
      1 N         140.0276  138.0024  164.2501 N.3     1  UNL1       -0.2711
      2 C         139.7230  137.9425  162.7826 C.3     1  UNL1        0.0735
      3 C         140.8421  137.9389  161.7839 C.3     1  UNL1        0.0331
      4 C         142.2658  137.9951  162.2527 C.3     1  UNL1        0.0570
      5 C         142.5704  138.0550  163.7202 C.3     1  UNL1        0.0331
      6 C         141.4513  138.0587  164.7189 C.3     1  UNL1        0.0735
      7 N         143.3850  137.9915  161.2539 N.3     1  UNL1       -0.2934
      8 H         143.2513  137.1697  160.6648 H       1  UNL1        0.1236
      9 C         143.5710  139.1598  160.3317 C.3     1  UNL1        0.1152
     10 C         143.5099  140.5581  160.8710 C.ar    1  UNL1        0.0765
     11 C         142.8712  141.6471  160.0610 C.ar    1  UNL1        0.0193
     12 C         142.8101  143.0455  160.6002 C.ar    1  UNL1        0.0411
     13 C         143.3878  143.3549  161.9495 C.ar    1  UNL1        0.1708
     14 C         144.0265  142.2659  162.7595 C.ar    1  UNL1        0.1682
     15 N         144.0876  140.8676  162.2203 N.ar    1  UNL1       -0.2304
     16 N         144.6042  142.5753  164.1088 N.am    1  UNL1       -0.2639
     17 C         144.5431  143.9738  164.6480 C.2     1  UNL1        0.2718
     18 O         145.1208  144.2832  165.9973 O.2     1  UNL1       -0.2707
     19 C         143.9044  145.0627  163.8380 C.3     1  UNL1        0.2898
     20 O         143.3267  144.7533  162.4888 O.3     1  UNL1       -0.4628
     21 H         145.0235  141.8606  164.6404 H       1  UNL1        0.1565
     22 C         138.9083  138.0060  165.2489 C.3     1  UNL1        0.0942
     23 C         138.2334  139.2948  165.6143 C.3     1  UNL1        0.1157
     24 C         139.2744  142.5873  162.7289 C.ar    1  UNL1        0.1071
     25 C         140.0917  143.7576  163.1896 C.ar    1  UNL1        0.0215
     26 C         140.5620  143.8305  164.6121 C.ar    1  UNL1        0.0395
     27 C         140.2150  142.7330  165.5739 C.ar    1  UNL1        0.1529
     28 C         139.3977  141.5627  165.1132 C.ar    1  UNL1        0.0894
     29 C         138.9274  141.4898  163.6907 C.ar    1  UNL1        0.0363
     30 N         139.0507  140.4651  166.0750 N.am    1  UNL1       -0.2515
     31 C         139.5210  140.5380  167.4975 C.2     1  UNL1        0.2740
     32 O         139.1740  139.4405  168.4593 O.2     1  UNL1       -0.2705
     33 C         140.3383  141.7084  167.9582 C.3     1  UNL1        0.2900
     34 O         140.6853  142.8059  166.9964 O.3     1  UNL1       -0.4643
     35 S         138.8041  142.5144  161.3064 S.O2    1  UNL1        0.0087
     36 O         139.2320  143.9361  161.0921 O.2     1  UNL1       -0.1686
     37 O         138.3762  141.0928  161.5206 O.2     1  UNL1       -0.1686
     38 C         139.1397  143.0835  158.7937 C.3     1  UNL1        0.0276
     39 C         138.3338  142.4416  159.8839 C.3     1  UNL1        0.1560
@<TRIPOS>BOND
     1    38    39    1
     2    39    35    1
     3    35    36    2
     4    35    37    2
     5    35    24    1
     6    24    25   ar
     7    25    26   ar
     8    26    27   ar
     9    27    28   ar
    10    28    29   ar
    11    28    30    1
    12    30    23    1
    13    23    22    1
    14    22     1    1
    15     1     2    1
    16     2     3    1
    17     3     4    1
    18     4     7    1
    19     7     9    1
    20     9    10    1
    21    10    11   ar
    22    11    12   ar
    23    12    13   ar
    24    13    14   ar
    25    14    15   ar
    26    14    16    1
    27    16    17   am
    28    17    18    2
    29    17    19    1
    30    19    20    1
    31     4     5    1
    32     5     6    1
    33    30    31   am
    34    31    32    2
    35    31    33    1
    36    33    34    1
    37    29    24   ar
    38     6     1    1
    39    34    27    1
    40    15    10   ar
    41    20    13    1
    42     7     8    1
    43    16    21    1
