@<TRIPOS>MOLECULE
*****
 32 35 0 0 0
SMALL
GASTEIGER

@<TRIPOS>ATOM
      1 C         142.3811  142.3388  165.8110 C.ar    1  UNL1       -0.0177
      2 C         140.9396  142.7533  165.8283 C.ar    1  UNL1       -0.0043
      3 C         139.9252  141.9095  166.5417 C.ar    1  UNL1       -0.0046
      4 C         140.3522  140.6513  167.2377 C.ar    1  UNL1       -0.0222
      5 C         141.7936  140.2367  167.2204 C.ar    1  UNL1       -0.0046
      6 C         142.8081  141.0805  166.5070 C.ar    1  UNL1       -0.0043
      7 C         143.3957  143.1826  165.0976 C.3     1  UNL1        0.0570
      8 C         144.5729  142.2827  162.8729 C.ar    1  UNL1        0.0782
      9 N         144.3468  142.4725  161.4022 N.ar    1  UNL1       -0.1687
     10 N         143.1735  143.3906  161.2282 N.ar    1  UNL1       -0.2168
     11 C         142.4950  143.9315  160.0046 C.ar    1  UNL1        0.0636
     12 C         142.9942  143.5537  158.6414 C.3     1  UNL1        0.0522
     13 C         141.3175  144.8501  160.1442 C.ar    1  UNL1        0.0296
     14 C         140.8184  145.2279  161.5073 C.ar    1  UNL1        0.0622
     15 C         139.6408  146.1465  161.6469 C.3     1  UNL1        0.0522
     16 N         141.4968  144.6870  162.7309 N.ar    1  UNL1       -0.2311
     17 C         142.6743  143.7684  162.5913 C.ar    1  UNL1        0.1604
     18 C         143.5392  143.0837  163.6078 C.ar    1  UNL1        0.0332
     19 C         145.2983  140.1084  164.0959 C.3     1  UNL1        0.0067
     20 C         145.6444  141.4401  163.4987 C.3     1  UNL1        0.0474
     21 C         139.3376  139.8075  167.9510 C.3     1  UNL1        0.0264
     22 C         138.2039  139.1909  167.1865 C.3     1  UNL1        0.0071
     23 C         138.4875  138.2497  166.0535 C.3     1  UNL1        0.0274
     24 C         138.6540  138.7813  164.6608 C.3     1  UNL1        0.0910
     25 O         137.5780  139.6981  165.1626 O.3     1  UNL1       -0.3866
     26 C         139.6721  137.6799  164.6427 C.3     1  UNL1        0.0440
     27 C         140.4831  137.4285  163.4061 C.3     1  UNL1        0.0710
     28 N         140.2760  138.2784  162.1876 N.3     1  UNL1       -0.2973
     29 C         139.2578  139.3799  162.2057 C.3     1  UNL1        0.0710
     30 C         138.4469  139.6313  163.4423 C.3     1  UNL1        0.0440
     31 H         137.3587  139.4681  166.0790 H       1  UNL1        0.2102
     32 H         140.0142  137.6479  161.4298 H       1  UNL1        0.1232
@<TRIPOS>BOND
     1    19    20    1
     2    20     8    1
     3     8     9   ar
     4     9    10   ar
     5    10    11   ar
     6    11    12    1
     7    11    13   ar
     8    13    14   ar
     9    14    15    1
    10    14    16   ar
    11    16    17   ar
    12    17    18   ar
    13    18     7    1
    14     7     1    1
    15     1     2   ar
    16     2     3   ar
    17     3     4   ar
    18     4    21    1
    19    21    22    1
    20    22    23    1
    21    23    24    1
    22    24    25    1
    23    24    26    1
    24    26    27    1
    25    27    28    1
    26    28    29    1
    27    29    30    1
    28     4     5   ar
    29     5     6   ar
    30    18     8   ar
    31     6     1   ar
    32    17    10   ar
    33    30    24    1
    34    25    31    1
    35    28    32    1
@<TRIPOS>MOLECULE
*****
 32 35 0 0 0
SMALL
GASTEIGER

@<TRIPOS>ATOM
      1 C         142.7451  141.5627  165.5542 C.ar    1  UNL1       -0.0177
      2 C         141.3984  142.2207  165.4970 C.ar    1  UNL1       -0.0043
      3 C         140.2369  141.6168  166.2292 C.ar    1  UNL1       -0.0046
      4 C         140.4221  140.3549  167.0186 C.ar    1  UNL1       -0.0222
      5 C         141.7689  139.6968  167.0759 C.ar    1  UNL1       -0.0046
      6 C         142.9303  140.3008  166.3436 C.ar    1  UNL1       -0.0043
      7 C         143.9067  142.1666  164.8219 C.3     1  UNL1        0.0570
      8 C         143.7086  143.7382  162.6689 C.ar    1  UNL1        0.0782
      9 N         143.6494  143.5061  161.1881 N.ar    1  UNL1       -0.1687
     10 N         143.7245  142.0274  160.9473 N.ar    1  UNL1       -0.2168
     11 C         143.7105  141.2137  159.6873 C.ar    1  UNL1        0.0636
     12 C         143.6049  141.8955  158.3554 C.3     1  UNL1        0.0522
     13 C         143.8019  139.7183  159.7593 C.ar    1  UNL1        0.0296
     14 C         143.9074  139.0365  161.0912 C.ar    1  UNL1        0.0622
     15 C         143.9989  137.5410  161.1631 C.3     1  UNL1        0.0522
     16 N         143.9215  139.8503  162.3512 N.ar    1  UNL1       -0.2311
     17 C         143.8301  141.3457  162.2793 C.ar    1  UNL1        0.1604
     18 C         143.8202  142.4030  163.3432 C.ar    1  UNL1        0.0332
     19 C         142.3747  145.5743  163.9335 C.3     1  UNL1        0.0067
     20 C         143.6639  145.0715  163.3548 C.3     1  UNL1        0.0474
     21 C         139.2606  139.7510  167.7508 C.3     1  UNL1        0.0264
     22 C         138.1539  139.0882  166.9853 C.3     1  UNL1        0.0071
     23 C         138.4769  138.1639  165.8490 C.3     1  UNL1        0.0274
     24 C         138.6997  138.7168  164.4725 C.3     1  UNL1        0.0910
     25 O         137.5893  139.6124  164.9364 O.3     1  UNL1       -0.3866
     26 C         139.7326  137.6293  164.4867 C.3     1  UNL1        0.0440
     27 C         140.6027  137.4056  163.2854 C.3     1  UNL1        0.0710
     28 N         140.4399  138.2696  162.0701 N.3     1  UNL1       -0.2973
     29 C         139.4069  139.3572  162.0560 C.3     1  UNL1        0.0710
     30 C         138.5369  139.5808  163.2572 C.3     1  UNL1        0.0440
     31 H         137.3314  139.3668  165.8387 H       1  UNL1        0.2102
     32 H         140.2218  137.6462  161.2927 H       1  UNL1        0.1232
@<TRIPOS>BOND
     1    19    20    1
     2    20     8    1
     3     8     9   ar
     4     9    10   ar
     5    10    11   ar
     6    11    12    1
     7    11    13   ar
     8    13    14   ar
     9    14    15    1
    10    14    16   ar
    11    16    17   ar
    12    17    18   ar
    13    18     7    1
    14     7     1    1
    15     1     2   ar
    16     2     3   ar
    17     3     4   ar
    18     4    21    1
    19    21    22    1
    20    22    23    1
    21    23    24    1
    22    24    25    1
    23    24    26    1
    24    26    27    1
    25    27    28    1
    26    28    29    1
    27    29    30    1
    28     4     5   ar
    29     5     6   ar
    30    18     8   ar
    31     6     1   ar
    32    17    10   ar
    33    30    24    1
    34    25    31    1
    35    28    32    1
@<TRIPOS>MOLECULE
*****
 32 35 0 0 0
SMALL
GASTEIGER

@<TRIPOS>ATOM
      1 C         138.9171  142.9912  163.8511 C.ar    1  UNL1       -0.0177
      2 C         139.6954  142.6501  165.0872 C.ar    1  UNL1       -0.0043
      3 C         139.4221  141.3675  165.8154 C.ar    1  UNL1       -0.0046
      4 C         138.3706  140.4261  165.3076 C.ar    1  UNL1       -0.0222
      5 C         137.5923  140.7671  164.0715 C.ar    1  UNL1       -0.0046
      6 C         137.8655  142.0497  163.3433 C.ar    1  UNL1       -0.0043
      7 C         139.1903  144.2738  163.1228 C.3     1  UNL1        0.0570
      8 C         141.6608  144.7931  162.2442 C.ar    1  UNL1        0.0782
      9 N         142.3652  144.6705  160.9255 N.ar    1  UNL1       -0.1687
     10 N         141.3882  144.1240  159.9271 N.ar    1  UNL1       -0.2168
     11 C         141.5207  143.7946  158.4698 C.ar    1  UNL1        0.0636
     12 C         142.8290  144.0097  157.7682 C.3     1  UNL1        0.0522
     13 C         140.3451  143.2500  157.7141 C.ar    1  UNL1        0.0296
     14 C         139.0368  143.0349  158.4156 C.ar    1  UNL1        0.0622
     15 C         137.8611  142.4902  157.6598 C.3     1  UNL1        0.0522
     16 N         138.9043  143.3643  159.8730 N.ar    1  UNL1       -0.2311
     17 C         140.0799  143.9089  160.6287 C.ar    1  UNL1        0.1604
     18 C         140.2484  144.3224  162.0607 C.ar    1  UNL1        0.0332
     19 C         143.5214  144.6785  164.0538 C.3     1  UNL1        0.0067
     20 C         142.2631  145.2978  163.5219 C.3     1  UNL1        0.0474
     21 C         138.0974  139.1435  166.0359 C.3     1  UNL1        0.0264
     22 C         138.8112  137.8866  165.6350 C.3     1  UNL1        0.0071
     23 C         138.8643  137.4820  164.1916 C.3     1  UNL1        0.0274
     24 C         140.1479  137.6044  163.4252 C.3     1  UNL1        0.0910
     25 O         140.6844  137.2184  164.7718 O.3     1  UNL1       -0.3866
     26 C         139.1657  137.9479  162.3448 C.3     1  UNL1        0.0440
     27 C         139.6534  138.2798  160.9657 C.3     1  UNL1        0.0710
     28 N         141.1233  138.2682  160.6669 N.3     1  UNL1       -0.2973
     29 C         142.1055  137.9246  161.7473 C.3     1  UNL1        0.0710
     30 C         141.6178  137.5928  163.1264 C.3     1  UNL1        0.0440
     31 H         139.9477  137.1009  165.3917 H       1  UNL1        0.2102
     32 H         141.3640  139.2026  160.3364 H       1  UNL1        0.1232
@<TRIPOS>BOND
     1    19    20    1
     2    20     8    1
     3     8     9   ar
     4     9    10   ar
     5    10    11   ar
     6    11    12    1
     7    11    13   ar
     8    13    14   ar
     9    14    15    1
    10    14    16   ar
    11    16    17   ar
    12    17    18   ar
    13    18     7    1
    14     7     1    1
    15     1     2   ar
    16     2     3   ar
    17     3     4   ar
    18     4    21    1
    19    21    22    1
    20    22    23    1
    21    23    24    1
    22    24    25    1
    23    24    26    1
    24    26    27    1
    25    27    28    1
    26    28    29    1
    27    29    30    1
    28     4     5   ar
    29     5     6   ar
    30    18     8   ar
    31     6     1   ar
    32    17    10   ar
    33    30    24    1
    34    25    31    1
    35    28    32    1
@<TRIPOS>MOLECULE
*****
 32 35 0 0 0
SMALL
GASTEIGER

@<TRIPOS>ATOM
      1 C         139.6575  142.8727  164.4220 C.ar    1  UNL1       -0.0177
      2 C         138.4797  142.1295  163.8651 C.ar    1  UNL1       -0.0043
      3 C         138.0322  140.8475  164.5024 C.ar    1  UNL1       -0.0046
      4 C         138.7627  140.3087  165.6966 C.ar    1  UNL1       -0.0222
      5 C         139.9405  141.0519  166.2536 C.ar    1  UNL1       -0.0046
      6 C         140.3880  142.3339  165.6162 C.ar    1  UNL1       -0.0043
      7 C         140.1050  144.1548  163.7847 C.3     1  UNL1        0.0570
      8 C         142.5281  144.4767  162.7029 C.ar    1  UNL1        0.0782
      9 N         143.1077  144.3072  161.3299 N.ar    1  UNL1       -0.1687
     10 N         142.0092  143.8506  160.4161 N.ar    1  UNL1       -0.2168
     11 C         141.9923  143.5229  158.9525 C.ar    1  UNL1        0.0636
     12 C         143.2508  143.6355  158.1441 C.3     1  UNL1        0.0522
     13 C         140.7169  143.0825  158.2973 C.ar    1  UNL1        0.0296
     14 C         139.4584  142.9699  159.1056 C.ar    1  UNL1        0.0622
     15 C         138.1830  142.5295  158.4503 C.3     1  UNL1        0.0522
     16 N         139.4753  143.2976  160.5693 N.ar    1  UNL1       -0.2311
     17 C         140.7507  143.7379  161.2245 C.ar    1  UNL1        0.1604
     18 C         141.0714  144.1249  162.6378 C.ar    1  UNL1        0.0332
     19 C         144.0764  143.9288  164.7160 C.3     1  UNL1        0.0067
     20 C         143.2742  144.9202  163.9263 C.3     1  UNL1        0.0474
     21 C         138.3152  139.0267  166.3339 C.3     1  UNL1        0.0264
     22 C         138.4837  137.7272  165.6037 C.3     1  UNL1        0.0071
     23 C         139.8109  137.3715  165.0023 C.3     1  UNL1        0.0274
     24 C         140.0933  137.6935  163.5647 C.3     1  UNL1        0.0910
     25 O         138.6318  137.3673  163.4763 O.3     1  UNL1       -0.3866
     26 C         141.4566  137.9079  164.1523 C.3     1  UNL1        0.0440
     27 C         142.5948  138.3309  163.2716 C.3     1  UNL1        0.0710
     28 N         142.3697  138.5396  161.8034 N.3     1  UNL1       -0.2973
     29 C         141.0063  138.3253  161.2158 C.3     1  UNL1        0.0710
     30 C         139.8682  137.9022  162.0964 C.3     1  UNL1        0.0440
     31 H         138.2991  137.1327  164.3567 H       1  UNL1        0.2102
     32 H         143.0035  137.9067  161.3154 H       1  UNL1        0.1232
@<TRIPOS>BOND
     1    19    20    1
     2    20     8    1
     3     8     9   ar
     4     9    10   ar
     5    10    11   ar
     6    11    12    1
     7    11    13   ar
     8    13    14   ar
     9    14    15    1
    10    14    16   ar
    11    16    17   ar
    12    17    18   ar
    13    18     7    1
    14     7     1    1
    15     1     2   ar
    16     2     3   ar
    17     3     4   ar
    18     4    21    1
    19    21    22    1
    20    22    23    1
    21    23    24    1
    22    24    25    1
    23    24    26    1
    24    26    27    1
    25    27    28    1
    26    28    29    1
    27    29    30    1
    28     4     5   ar
    29     5     6   ar
    30    18     8   ar
    31     6     1   ar
    32    17    10   ar
    33    30    24    1
    34    25    31    1
    35    28    32    1
@<TRIPOS>MOLECULE
*****
 32 35 0 0 0
SMALL
GASTEIGER

@<TRIPOS>ATOM
      1 C         139.4756  143.1339  164.5186 C.ar    1  UNL1       -0.0177
      2 C         138.7146  141.8573  164.3154 C.ar    1  UNL1       -0.0043
      3 C         138.7695  140.7779  165.3555 C.ar    1  UNL1       -0.0046
      4 C         139.5854  140.9749  166.5987 C.ar    1  UNL1       -0.0222
      5 C         140.3464  142.2514  166.8018 C.ar    1  UNL1       -0.0046
      6 C         140.2915  143.3309  165.7618 C.ar    1  UNL1       -0.0043
      7 C         139.4208  144.2134  163.4785 C.3     1  UNL1        0.0570
      8 C         141.8618  144.7073  162.5078 C.ar    1  UNL1        0.0782
      9 N         142.5167  144.5717  161.1651 N.ar    1  UNL1       -0.1687
     10 N         141.4995  144.0281  160.2060 N.ar    1  UNL1       -0.2168
     11 C         141.5763  143.6897  158.7467 C.ar    1  UNL1        0.0636
     12 C         142.8598  143.8901  157.9968 C.3     1  UNL1        0.0522
     13 C         140.3695  143.1509  158.0373 C.ar    1  UNL1        0.0296
     14 C         139.0859  142.9505  158.7872 C.ar    1  UNL1        0.0622
     15 C         137.8791  142.4117  158.0777 C.3     1  UNL1        0.0522
     16 N         139.0092  143.2890  160.2465 N.ar    1  UNL1       -0.2311
     17 C         140.2160  143.8277  160.9559 C.ar    1  UNL1        0.1604
     18 C         140.4399  144.2475  162.3784 C.ar    1  UNL1        0.0332
     19 C         143.7023  144.4967  164.3293 C.3     1  UNL1        0.0067
     20 C         142.5143  145.2137  163.7599 C.3     1  UNL1        0.0474
     21 C         139.6402  139.8954  167.6386 C.3     1  UNL1        0.0264
     22 C         138.8920  140.0577  168.9285 C.3     1  UNL1        0.0071
     23 C         139.6426  140.2751  170.2088 C.3     1  UNL1        0.0274
     24 C         140.6669  141.3670  170.3015 C.3     1  UNL1        0.0910
     25 O         139.4099  142.1812  170.3863 O.3     1  UNL1       -0.3866
     26 C         141.5681  140.1737  170.1846 C.3     1  UNL1        0.0440
     27 C         143.0572  140.3550  170.1898 C.3     1  UNL1        0.0710
     28 N         143.6449  141.7296  170.3119 N.3     1  UNL1       -0.2973
     29 C         142.7436  142.9230  170.4289 C.3     1  UNL1        0.0710
     30 C         141.2547  142.7416  170.4237 C.3     1  UNL1        0.0440
     31 H         138.6400  141.5932  170.3380 H       1  UNL1        0.2102
     32 H         144.2231  141.8772  169.4847 H       1  UNL1        0.1232
@<TRIPOS>BOND
     1    19    20    1
     2    20     8    1
     3     8     9   ar
     4     9    10   ar
     5    10    11   ar
     6    11    12    1
     7    11    13   ar
     8    13    14   ar
     9    14    15    1
    10    14    16   ar
    11    16    17   ar
    12    17    18   ar
    13    18     7    1
    14     7     1    1
    15     1     2   ar
    16     2     3   ar
    17     3     4   ar
    18     4    21    1
    19    21    22    1
    20    22    23    1
    21    23    24    1
    22    24    25    1
    23    24    26    1
    24    26    27    1
    25    27    28    1
    26    28    29    1
    27    29    30    1
    28     4     5   ar
    29     5     6   ar
    30    18     8   ar
    31     6     1   ar
    32    17    10   ar
    33    30    24    1
    34    25    31    1
    35    28    32    1
@<TRIPOS>MOLECULE
*****
 32 35 0 0 0
SMALL
GASTEIGER

@<TRIPOS>ATOM
      1 C         138.8278  142.3940  163.3852 C.ar    1  UNL1       -0.0177
      2 C         139.4737  142.1819  164.7223 C.ar    1  UNL1       -0.0043
      3 C         139.5120  140.8100  165.3275 C.ar    1  UNL1       -0.0046
      4 C         138.9044  139.6502  164.5957 C.ar    1  UNL1       -0.0222
      5 C         138.2585  139.8623  163.2586 C.ar    1  UNL1       -0.0046
      6 C         138.2202  141.2342  162.6534 C.ar    1  UNL1       -0.0043
      7 C         138.7894  143.7660  162.7800 C.3     1  UNL1        0.0570
      8 C         141.0503  144.9041  161.9209 C.ar    1  UNL1        0.0782
      9 N         141.7210  145.0566  160.5879 N.ar    1  UNL1       -0.1687
     10 N         140.8597  144.3898  159.5566 N.ar    1  UNL1       -0.2168
     11 C         141.0154  144.2238  158.0740 C.ar    1  UNL1        0.0636
     12 C         142.2185  144.7884  157.3784 C.3     1  UNL1        0.0522
     13 C         139.9682  143.4932  157.2871 C.ar    1  UNL1        0.0296
     14 C         138.7651  142.9286  157.9827 C.ar    1  UNL1        0.0622
     15 C         137.7178  142.1979  157.1957 C.3     1  UNL1        0.0522
     16 N         138.6094  143.0946  159.4653 N.ar    1  UNL1       -0.2311
     17 C         139.6567  143.8252  160.2523 C.ar    1  UNL1        0.1604
     18 C         139.7745  144.1431  161.7134 C.ar    1  UNL1        0.0332
     19 C         142.7162  144.7382  163.9077 C.3     1  UNL1        0.0067
     20 C         141.5651  145.4218  163.2313 C.3     1  UNL1        0.0474
     21 C         138.9428  138.2783  165.2009 C.3     1  UNL1        0.0264
     22 C         139.8798  137.2427  164.6533 C.3     1  UNL1        0.0071
     23 C         141.3625  137.4526  164.7392 C.3     1  UNL1        0.0274
     24 C         142.1428  137.8041  163.5073 C.3     1  UNL1        0.0910
     25 O         141.1052  136.9007  162.9095 O.3     1  UNL1       -0.3866
     26 C         142.9093  138.5853  164.5329 C.3     1  UNL1        0.0440
     27 C         144.0959  139.4044  164.1191 C.3     1  UNL1        0.0710
     28 N         144.5159  139.4422  162.6795 N.3     1  UNL1       -0.2973
     29 C         143.7492  138.6609  161.6539 C.3     1  UNL1        0.0710
     30 C         142.5627  137.8419  162.0678 C.3     1  UNL1        0.0440
     31 H         140.5100  136.5855  163.6075 H       1  UNL1        0.2102
     32 H         145.4790  139.1081  162.6449 H       1  UNL1        0.1232
@<TRIPOS>BOND
     1    19    20    1
     2    20     8    1
     3     8     9   ar
     4     9    10   ar
     5    10    11   ar
     6    11    12    1
     7    11    13   ar
     8    13    14   ar
     9    14    15    1
    10    14    16   ar
    11    16    17   ar
    12    17    18   ar
    13    18     7    1
    14     7     1    1
    15     1     2   ar
    16     2     3   ar
    17     3     4   ar
    18     4    21    1
    19    21    22    1
    20    22    23    1
    21    23    24    1
    22    24    25    1
    23    24    26    1
    24    26    27    1
    25    27    28    1
    26    28    29    1
    27    29    30    1
    28     4     5   ar
    29     5     6   ar
    30    18     8   ar
    31     6     1   ar
    32    17    10   ar
    33    30    24    1
    34    25    31    1
    35    28    32    1
@<TRIPOS>MOLECULE
*****
 32 35 0 0 0
SMALL
GASTEIGER

@<TRIPOS>ATOM
      1 C         139.8443  140.7623  164.4107 C.ar    1  UNL1       -0.0177
      2 C         139.2641  140.8277  163.0290 C.ar    1  UNL1       -0.0043
      3 C         138.7937  142.1396  162.4745 C.ar    1  UNL1       -0.0046
      4 C         138.9036  143.3861  163.3016 C.ar    1  UNL1       -0.0222
      5 C         139.4838  143.3207  164.6833 C.ar    1  UNL1       -0.0046
      6 C         139.9542  142.0088  165.2378 C.ar    1  UNL1       -0.0043
      7 C         140.3147  139.4502  164.9653 C.3     1  UNL1        0.0570
      8 C         142.7194  139.1761  166.0997 C.ar    1  UNL1        0.0782
      9 N         143.2431  139.2391  167.5039 N.ar    1  UNL1       -0.1687
     10 N         142.0880  139.5253  168.4171 N.ar    1  UNL1       -0.2168
     11 C         142.0032  139.6970  169.9048 C.ar    1  UNL1        0.0636
     12 C         143.2408  139.5830  170.7446 C.3     1  UNL1        0.0522
     13 C         140.6808  139.9825  170.5526 C.ar    1  UNL1        0.0296
     14 C         139.4432  140.0965  169.7127 C.ar    1  UNL1        0.0622
     15 C         138.1208  140.3821  170.3607 C.3     1  UNL1        0.0522
     16 N         139.5280  139.9249  168.2250 N.ar    1  UNL1       -0.2311
     17 C         140.8504  139.6393  167.5772 C.ar    1  UNL1        0.1604
     18 C         141.2407  139.4234  166.1450 C.ar    1  UNL1        0.0332
     19 C         144.5541  139.9120  164.4138 C.3     1  UNL1        0.0067
     20 C         143.5319  138.9121  164.8667 C.3     1  UNL1        0.0474
     21 C         138.4332  144.6981  162.7470 C.3     1  UNL1        0.0264
     22 C         139.4308  145.7113  162.2691 C.3     1  UNL1        0.0071
     23 C         140.7052  145.2604  161.6191 C.3     1  UNL1        0.0274
     24 C         141.9140  144.9717  162.4589 C.3     1  UNL1        0.0910
     25 O         141.3138  146.0992  163.2453 O.3     1  UNL1       -0.3866
     26 C         142.0945  143.9445  161.3808 C.3     1  UNL1        0.0440
     27 C         143.2753  143.0202  161.4157 C.3     1  UNL1        0.0710
     28 N         144.2758  143.1230  162.5286 N.3     1  UNL1       -0.2973
     29 C         144.0953  144.1503  163.6067 C.3     1  UNL1        0.0710
     30 C         142.9145  145.0746  163.5718 C.3     1  UNL1        0.0440
     31 H         140.5005  146.3998  162.8104 H       1  UNL1        0.2102
     32 H         145.1806  143.3069  162.0951 H       1  UNL1        0.1232
@<TRIPOS>BOND
     1    19    20    1
     2    20     8    1
     3     8     9   ar
     4     9    10   ar
     5    10    11   ar
     6    11    12    1
     7    11    13   ar
     8    13    14   ar
     9    14    15    1
    10    14    16   ar
    11    16    17   ar
    12    17    18   ar
    13    18     7    1
    14     7     1    1
    15     1     2   ar
    16     2     3   ar
    17     3     4   ar
    18     4    21    1
    19    21    22    1
    20    22    23    1
    21    23    24    1
    22    24    25    1
    23    24    26    1
    24    26    27    1
    25    27    28    1
    26    28    29    1
    27    29    30    1
    28     4     5   ar
    29     5     6   ar
    30    18     8   ar
    31     6     1   ar
    32    17    10   ar
    33    30    24    1
    34    25    31    1
    35    28    32    1
@<TRIPOS>MOLECULE
*****
 32 35 0 0 0
SMALL
GASTEIGER

@<TRIPOS>ATOM
      1 C         138.2329  140.0110  162.5036 C.ar    1  UNL1       -0.0177
      2 C         138.0115  141.2642  161.7095 C.ar    1  UNL1       -0.0043
      3 C         137.7892  142.5693  162.4146 C.ar    1  UNL1       -0.0046
      4 C         137.7884  142.6213  163.9137 C.ar    1  UNL1       -0.0222
      5 C         138.0098  141.3681  164.7078 C.ar    1  UNL1       -0.0046
      6 C         138.2321  140.0630  164.0026 C.ar    1  UNL1       -0.0043
      7 C         138.4552  138.7058  161.7985 C.3     1  UNL1        0.0570
      8 C         140.9957  137.9689  161.4135 C.ar    1  UNL1        0.0782
      9 N         141.9269  137.9463  160.2379 N.ar    1  UNL1       -0.1687
     10 N         141.1830  138.4739  159.0470 N.ar    1  UNL1       -0.2168
     11 C         141.5926  138.6818  157.6191 C.ar    1  UNL1        0.0636
     12 C         142.9836  138.3331  157.1794 C.3     1  UNL1        0.0522
     13 C         140.6110  139.2385  156.6308 C.ar    1  UNL1        0.0296
     14 C         139.2200  139.5872  157.0705 C.ar    1  UNL1        0.0622
     15 C         138.2384  140.1439  156.0821 C.3     1  UNL1        0.0522
     16 N         138.8104  139.3793  158.4984 N.ar    1  UNL1       -0.2311
     17 C         139.7919  138.8226  159.4866 C.ar    1  UNL1        0.1604
     18 C         139.6762  138.5105  160.9492 C.ar    1  UNL1        0.0332
     19 C         141.6519  138.5461  163.8602 C.3     1  UNL1        0.0067
     20 C         141.3259  137.5274  162.8086 C.3     1  UNL1        0.0474
     21 C         137.5661  143.9264  164.6187 C.3     1  UNL1        0.0264
     22 C         138.7391  144.7315  165.0942 C.3     1  UNL1        0.0071
     23 C         140.0898  144.0902  165.2137 C.3     1  UNL1        0.0274
     24 C         141.1148  144.2947  164.1378 C.3     1  UNL1        0.0910
     25 O         140.3570  145.5841  164.0239 O.3     1  UNL1       -0.3866
     26 C         141.5167  142.9343  164.6254 C.3     1  UNL1        0.0440
     27 C         142.6805  142.2260  163.9975 C.3     1  UNL1        0.0710
     28 N         143.4423  142.8783  162.8821 N.3     1  UNL1       -0.2973
     29 C         143.0404  144.2388  162.3945 C.3     1  UNL1        0.0710
     30 C         141.8767  144.9469  163.0224 C.3     1  UNL1        0.0440
     31 H         139.6405  145.5969  164.6776 H       1  UNL1        0.2102
     32 H         143.3866  142.2499  162.0806 H       1  UNL1        0.1232
@<TRIPOS>BOND
     1    19    20    1
     2    20     8    1
     3     8     9   ar
     4     9    10   ar
     5    10    11   ar
     6    11    12    1
     7    11    13   ar
     8    13    14   ar
     9    14    15    1
    10    14    16   ar
    11    16    17   ar
    12    17    18   ar
    13    18     7    1
    14     7     1    1
    15     1     2   ar
    16     2     3   ar
    17     3     4   ar
    18     4    21    1
    19    21    22    1
    20    22    23    1
    21    23    24    1
    22    24    25    1
    23    24    26    1
    24    26    27    1
    25    27    28    1
    26    28    29    1
    27    29    30    1
    28     4     5   ar
    29     5     6   ar
    30    18     8   ar
    31     6     1   ar
    32    17    10   ar
    33    30    24    1
    34    25    31    1
    35    28    32    1
@<TRIPOS>MOLECULE
*****
 32 35 0 0 0
SMALL
GASTEIGER

@<TRIPOS>ATOM
      1 C         141.6213  137.6636  162.1537 C.ar    1  UNL1       -0.0177
      2 C         140.1702  137.8951  161.8525 C.ar    1  UNL1       -0.0043
      3 C         139.1916  138.0793  162.9742 C.ar    1  UNL1       -0.0046
      4 C         139.6640  138.0318  164.3971 C.ar    1  UNL1       -0.0222
      5 C         141.1151  137.8002  164.6983 C.ar    1  UNL1       -0.0046
      6 C         142.0937  137.6161  163.5765 C.ar    1  UNL1       -0.0043
      7 C         142.6000  137.4794  161.0319 C.3     1  UNL1        0.0570
      8 C         142.6276  138.6966  158.6522 C.ar    1  UNL1        0.0782
      9 N         143.1185  140.0194  158.1432 N.ar    1  UNL1       -0.1687
     10 N         143.7162  140.7676  159.2978 N.ar    1  UNL1       -0.2168
     11 C         144.3554  142.1212  159.3937 C.ar    1  UNL1        0.0636
     12 C         144.4769  142.9816  158.1711 C.3     1  UNL1        0.0522
     13 C         144.8731  142.6143  160.7123 C.ar    1  UNL1        0.0296
     14 C         144.7516  141.7538  161.9350 C.ar    1  UNL1        0.0622
     15 C         145.2694  142.2470  163.2536 C.3     1  UNL1        0.0522
     16 N         144.1125  140.4003  161.8390 N.ar    1  UNL1       -0.2311
     17 C         143.5948  139.9071  160.5204 C.ar    1  UNL1        0.1604
     18 C         142.9220  138.6272  160.1214 C.ar    1  UNL1        0.0332
     19 C         142.7856  136.6983  156.9995 C.3     1  UNL1        0.0067
     20 C         141.9597  137.6304  157.8355 C.3     1  UNL1        0.0474
     21 C         138.6853  138.2159  165.5188 C.3     1  UNL1        0.0264
     22 C         138.0924  139.5683  165.7826 C.3     1  UNL1        0.0071
     23 C         138.9264  140.8015  165.5994 C.3     1  UNL1        0.0274
     24 C         138.4245  141.9258  164.7426 C.3     1  UNL1        0.0910
     25 O         137.3917  140.8826  164.4345 O.3     1  UNL1       -0.3866
     26 C         139.6316  142.5786  165.3482 C.3     1  UNL1        0.0440
     27 C         139.9781  143.9935  164.9901 C.3     1  UNL1        0.0710
     28 N         139.1176  144.7555  164.0263 N.3     1  UNL1       -0.2973
     29 C         137.9105  144.1026  163.4207 C.3     1  UNL1        0.0710
     30 C         137.5640  142.6879  163.7788 C.3     1  UNL1        0.0440
     31 H         137.5908  140.0738  164.9316 H       1  UNL1        0.2102
     32 H         139.7199  145.0365  163.2525 H       1  UNL1        0.1232
@<TRIPOS>BOND
     1    19    20    1
     2    20     8    1
     3     8     9   ar
     4     9    10   ar
     5    10    11   ar
     6    11    12    1
     7    11    13   ar
     8    13    14   ar
     9    14    15    1
    10    14    16   ar
    11    16    17   ar
    12    17    18   ar
    13    18     7    1
    14     7     1    1
    15     1     2   ar
    16     2     3   ar
    17     3     4   ar
    18     4    21    1
    19    21    22    1
    20    22    23    1
    21    23    24    1
    22    24    25    1
    23    24    26    1
    24    26    27    1
    25    27    28    1
    26    28    29    1
    27    29    30    1
    28     4     5   ar
    29     5     6   ar
    30    18     8   ar
    31     6     1   ar
    32    17    10   ar
    33    30    24    1
    34    25    31    1
    35    28    32    1
