@<TRIPOS>MOLECULE
*****
 30 34 0 0 0
SMALL
GASTEIGER

@<TRIPOS>ATOM
      1 C         139.5364  139.3724  165.5812 C.ar    1  UNL1        0.1035
      2 C         139.1336  137.9314  165.4751 C.ar    1  UNL1        0.1197
      3 N         138.7316  137.6659  164.0546 N.ar    1  UNL1       -0.2234
      4 C         138.8858  138.9428  163.2828 C.ar    1  UNL1        0.1639
      5 C         138.6376  139.2814  161.8428 C.ar    1  UNL1        0.0404
      6 C         138.8868  140.6747  161.3463 C.ar    1  UNL1        0.0240
      7 C         139.3843  141.7294  162.2898 C.ar    1  UNL1        0.1015
      8 N         139.6325  141.3908  163.7298 N.ar    1  UNL1       -0.1638
      9 N         139.3832  139.9975  164.2263 N.ar    1  UNL1       -0.2107
     10 C         140.9552  141.4547  169.3097 C.ar    1  UNL1        0.1807
     11 C         139.7148  140.6121  169.3470 C.ar    1  UNL1        0.0520
     12 C         139.2419  139.9180  168.1042 C.ar    1  UNL1        0.0060
     13 C         140.0093  140.0665  166.8240 C.ar    1  UNL1        0.0196
     14 C         141.2497  140.9092  166.7866 C.ar    1  UNL1        0.0060
     15 C         141.7226  141.6033  168.0295 C.ar    1  UNL1        0.0520
     16 C         142.7229  142.9061  170.5421 C.3     1  UNL1        0.3254
     17 S         141.4281  142.1488  170.5525 S.O     1  UNL1        0.0581
     18 O         140.6062  142.0856  171.8056 O.co2   1  UNL1       -0.6774
     19 C         139.6335  143.1228  161.7932 C.ar    1  UNL1        0.0206
     20 C         139.4514  144.2915  162.7156 C.ar    1  UNL1        0.0016
     21 C         139.7006  145.6849  162.2190 C.ar    1  UNL1        0.0014
     22 C         140.1319  145.9094  160.8000 C.ar    1  UNL1        0.0183
     23 C         140.3140  144.7406  159.8776 C.ar    1  UNL1        0.1056
     24 C         140.0648  143.3473  160.3742 C.ar    1  UNL1        0.0199
     25 S         140.7453  144.9651  158.4586 S.O2    1  UNL1        0.0070
     26 O         141.9204  145.7623  158.9419 O.2     1  UNL1       -0.1687
     27 O         139.5702  144.1679  157.9753 O.2     1  UNL1       -0.1687
     28 C         141.1766  145.1896  157.0396 C.3     1  UNL1        0.1339
     29 C         142.2045  145.0478  155.9564 C.3     1  UNL1        0.0257
     30 C         140.8958  145.7204  155.6651 C.3     1  UNL1        0.0257
@<TRIPOS>UNITY_ATOM_ATTR
17 1
charge 1
18 1
charge -1
@<TRIPOS>BOND
     1    16    17    1
     2    17    18    2
     3    17    10    1
     4    10    11   ar
     5    11    12   ar
     6    12    13   ar
     7    13     1    1
     8     1     2   ar
     9     2     3   ar
    10     3     4   ar
    11     4     5   ar
    12     5     6   ar
    13     6     7   ar
    14     7    19    1
    15    19    20   ar
    16    20    21   ar
    17    21    22   ar
    18    22    23   ar
    19    23    25    1
    20    25    26    2
    21    25    27    2
    22    25    28    1
    23    28    29    1
    24    29    30    1
    25    23    24   ar
    26     7     8   ar
    27     8     9   ar
    28    13    14   ar
    29    14    15   ar
    30    15    10   ar
    31     9     1   ar
    32     9     4   ar
    33    24    19   ar
    34    30    28    1
@<TRIPOS>MOLECULE
*****
 30 34 0 0 0
SMALL
GASTEIGER

@<TRIPOS>ATOM
      1 C         142.0206  139.6845  159.8719 C.ar    1  UNL1        0.1035
      2 C         143.3819  139.5037  159.2683 C.ar    1  UNL1        0.1197
      3 N         144.3238  139.0969  160.3625 N.ar    1  UNL1       -0.2234
      4 C         143.5447  139.0264  161.6424 C.ar    1  UNL1        0.1639
      5 C         143.9476  138.6784  163.0448 C.ar    1  UNL1        0.0404
      6 C         142.9270  138.6936  164.1439 C.ar    1  UNL1        0.0240
      7 C         141.5035  139.0568  163.8407 C.ar    1  UNL1        0.1015
      8 N         141.1007  139.4048  162.4383 N.ar    1  UNL1       -0.1638
      9 N         142.1213  139.3896  161.3392 N.ar    1  UNL1       -0.2107
     10 C         138.2899  140.8989  157.6680 C.ar    1  UNL1        0.1807
     11 C         139.0608  139.6897  157.2282 C.ar    1  UNL1        0.0520
     12 C         140.3044  139.2849  157.9629 C.ar    1  UNL1        0.0060
     13 C         140.7771  140.0893  159.1373 C.ar    1  UNL1        0.0196
     14 C         140.0061  141.2986  159.5772 C.ar    1  UNL1        0.0060
     15 C         138.7626  141.7034  158.8425 C.ar    1  UNL1        0.0520
     16 C         137.0035  142.6074  156.1928 C.3     1  UNL1        0.3254
     17 S         137.0463  141.3037  156.9334 S.O     1  UNL1        0.0581
     18 O         135.8456  140.4047  156.9393 O.co2   1  UNL1       -0.6774
     19 C         140.4829  139.0720  164.9399 C.ar    1  UNL1        0.0206
     20 C         139.2397  138.2412  164.8206 C.ar    1  UNL1        0.0016
     21 C         138.2191  138.2564  165.9198 C.ar    1  UNL1        0.0014
     22 C         138.4418  139.1024  167.1383 C.ar    1  UNL1        0.0183
     23 C         139.6850  139.9332  167.2575 C.ar    1  UNL1        0.1056
     24 C         140.7055  139.9180  166.1584 C.ar    1  UNL1        0.0199
     25 S         139.9077  140.7793  168.4760 S.O2    1  UNL1        0.0070
     26 O         140.6085  141.8052  167.6356 O.2     1  UNL1       -0.1687
     27 O         139.2068  139.7533  169.3164 O.2     1  UNL1       -0.1687
     28 C         140.1303  141.6253  169.6945 C.3     1  UNL1        0.1339
     29 C         139.8888  142.8945  170.4565 C.3     1  UNL1        0.0257
     30 C         140.7574  141.8213  171.0429 C.3     1  UNL1        0.0257
@<TRIPOS>UNITY_ATOM_ATTR
17 1
charge 1
18 1
charge -1
@<TRIPOS>BOND
     1    16    17    1
     2    17    18    2
     3    17    10    1
     4    10    11   ar
     5    11    12   ar
     6    12    13   ar
     7    13     1    1
     8     1     2   ar
     9     2     3   ar
    10     3     4   ar
    11     4     5   ar
    12     5     6   ar
    13     6     7   ar
    14     7    19    1
    15    19    20   ar
    16    20    21   ar
    17    21    22   ar
    18    22    23   ar
    19    23    25    1
    20    25    26    2
    21    25    27    2
    22    25    28    1
    23    28    29    1
    24    29    30    1
    25    23    24   ar
    26     7     8   ar
    27     8     9   ar
    28    13    14   ar
    29    14    15   ar
    30    15    10   ar
    31     9     1   ar
    32     9     4   ar
    33    24    19   ar
    34    30    28    1
@<TRIPOS>MOLECULE
*****
 30 34 0 0 0
SMALL
GASTEIGER

@<TRIPOS>ATOM
      1 C         140.9326  138.5386  164.7318 C.ar    1  UNL1        0.1035
      2 C         141.0695  137.0767  164.4250 C.ar    1  UNL1        0.1197
      3 N         141.1049  136.9174  162.9340 N.ar    1  UNL1       -0.2234
      4 C         140.9899  138.2808  162.3192 C.ar    1  UNL1        0.1639
      5 C         140.9684  138.7393  160.8912 C.ar    1  UNL1        0.0404
      6 C         140.8404  140.1998  160.5744 C.ar    1  UNL1        0.0240
      7 C         140.7338  141.2018  161.6855 C.ar    1  UNL1        0.1015
      8 N         140.7553  140.7433  163.1135 N.ar    1  UNL1       -0.1638
      9 N         140.8834  139.2828  163.4304 N.ar    1  UNL1       -0.2107
     10 C         140.7086  140.3703  168.8361 C.ar    1  UNL1        0.1807
     11 C         142.0399  140.0056  168.2492 C.ar    1  UNL1        0.0520
     12 C         142.1146  139.3950  166.8811 C.ar    1  UNL1        0.0060
     13 C         140.8580  139.1492  166.0999 C.ar    1  UNL1        0.0196
     14 C         139.5265  139.5139  166.6869 C.ar    1  UNL1        0.0060
     15 C         139.4519  140.1245  168.0549 C.ar    1  UNL1        0.0520
     16 C         141.8508  141.0079  171.0808 C.3     1  UNL1        0.3254
     17 S         140.6340  140.9809  170.2042 S.O     1  UNL1        0.0581
     18 O         139.3425  141.5644  170.6955 O.co2   1  UNL1       -0.6774
     19 C         140.6058  142.6624  161.3686 C.ar    1  UNL1        0.0206
     20 C         140.3344  143.6472  162.4670 C.ar    1  UNL1        0.0016
     21 C         140.2064  145.1078  162.1501 C.ar    1  UNL1        0.0014
     22 C         140.3498  145.5835  160.7348 C.ar    1  UNL1        0.0183
     23 C         140.6212  144.5986  159.6364 C.ar    1  UNL1        0.1056
     24 C         140.7492  143.1381  159.9533 C.ar    1  UNL1        0.0199
     25 S         140.7645  145.0744  158.2211 S.O2    1  UNL1        0.0070
     26 O         139.5630  144.2670  157.8280 O.2     1  UNL1       -0.1687
     27 O         141.9661  145.8817  158.6141 O.2     1  UNL1       -0.1687
     28 C         140.9079  145.5501  156.8057 C.3     1  UNL1        0.1339
     29 C         141.6851  145.5976  155.5237 C.3     1  UNL1        0.0257
     30 C         140.3790  146.3266  155.6364 C.3     1  UNL1        0.0257
@<TRIPOS>UNITY_ATOM_ATTR
17 1
charge 1
18 1
charge -1
@<TRIPOS>BOND
     1    16    17    1
     2    17    18    2
     3    17    10    1
     4    10    11   ar
     5    11    12   ar
     6    12    13   ar
     7    13     1    1
     8     1     2   ar
     9     2     3   ar
    10     3     4   ar
    11     4     5   ar
    12     5     6   ar
    13     6     7   ar
    14     7    19    1
    15    19    20   ar
    16    20    21   ar
    17    21    22   ar
    18    22    23   ar
    19    23    25    1
    20    25    26    2
    21    25    27    2
    22    25    28    1
    23    28    29    1
    24    29    30    1
    25    23    24   ar
    26     7     8   ar
    27     8     9   ar
    28    13    14   ar
    29    14    15   ar
    30    15    10   ar
    31     9     1   ar
    32     9     4   ar
    33    24    19   ar
    34    30    28    1
@<TRIPOS>MOLECULE
*****
 30 34 0 0 0
SMALL
GASTEIGER

@<TRIPOS>ATOM
      1 C         140.5699  143.4920  160.3398 C.ar    1  UNL1        0.1035
      2 C         140.4292  144.8901  159.8149 C.ar    1  UNL1        0.1197
      3 N         139.7908  145.7249  160.8852 N.ar    1  UNL1       -0.2234
      4 C         139.5370  144.8428  162.0716 C.ar    1  UNL1        0.1639
      5 C         138.9297  145.1178  163.4152 C.ar    1  UNL1        0.0404
      6 C         138.8039  144.0129  164.4218 C.ar    1  UNL1        0.0240
      7 C         139.2854  142.6328  164.0847 C.ar    1  UNL1        0.1015
      8 N         139.8927  142.3578  162.7410 N.ar    1  UNL1       -0.1638
      9 N         140.0185  143.4627  161.7345 N.ar    1  UNL1       -0.2107
     10 C         142.3362  139.9986  158.1201 C.ar    1  UNL1        0.1807
     11 C         141.0246  140.5799  157.6822 C.ar    1  UNL1        0.0520
     12 C         140.4358  141.7443  158.4221 C.ar    1  UNL1        0.0060
     13 C         141.1586  142.3275  159.5999 C.ar    1  UNL1        0.0196
     14 C         142.4703  141.7463  160.0378 C.ar    1  UNL1        0.0060
     15 C         143.0591  140.5818  159.2979 C.ar    1  UNL1        0.0520
     16 C         142.2316  137.5042  157.4011 C.3     1  UNL1        0.3254
     17 S         142.9249  138.8342  157.3802 S.O     1  UNL1        0.0581
     18 O         144.2070  138.9998  156.6194 O.co2   1  UNL1       -0.6774
     19 C         139.1596  141.5278  165.0913 C.ar    1  UNL1        0.0206
     20 C         138.1791  140.4154  164.8652 C.ar    1  UNL1        0.0016
     21 C         138.0533  139.3104  165.8718 C.ar    1  UNL1        0.0014
     22 C         138.9079  139.3179  167.1045 C.ar    1  UNL1        0.0183
     23 C         139.8884  140.4305  167.3306 C.ar    1  UNL1        0.1056
     24 C         140.0142  141.5354  166.3240 C.ar    1  UNL1        0.0199
     25 S         140.7430  140.4380  168.5633 S.O2    1  UNL1        0.0070
     26 O         139.6312  139.7948  169.3380 O.2     1  UNL1       -0.1687
     27 O         141.8548  141.0811  167.7886 O.2     1  UNL1       -0.1687
     28 C         141.5976  140.4455  169.7960 C.3     1  UNL1        0.1339
     29 C         141.8652  140.9356  171.1882 C.3     1  UNL1        0.0257
     30 C         142.8102  139.9685  170.5389 C.3     1  UNL1        0.0257
@<TRIPOS>UNITY_ATOM_ATTR
17 1
charge 1
18 1
charge -1
@<TRIPOS>BOND
     1    16    17    1
     2    17    18    2
     3    17    10    1
     4    10    11   ar
     5    11    12   ar
     6    12    13   ar
     7    13     1    1
     8     1     2   ar
     9     2     3   ar
    10     3     4   ar
    11     4     5   ar
    12     5     6   ar
    13     6     7   ar
    14     7    19    1
    15    19    20   ar
    16    20    21   ar
    17    21    22   ar
    18    22    23   ar
    19    23    25    1
    20    25    26    2
    21    25    27    2
    22    25    28    1
    23    28    29    1
    24    29    30    1
    25    23    24   ar
    26     7     8   ar
    27     8     9   ar
    28    13    14   ar
    29    14    15   ar
    30    15    10   ar
    31     9     1   ar
    32     9     4   ar
    33    24    19   ar
    34    30    28    1
@<TRIPOS>MOLECULE
*****
 30 34 0 0 0
SMALL
GASTEIGER

@<TRIPOS>ATOM
      1 C         139.8166  142.8991  159.8935 C.ar    1  UNL1        0.1035
      2 C         139.9196  144.2770  159.3098 C.ar    1  UNL1        0.1197
      3 N         139.8119  145.2654  160.4329 N.ar    1  UNL1       -0.2234
      4 C         139.6423  144.4984  161.7108 C.ar    1  UNL1        0.1639
      5 C         139.4857  144.9428  163.1349 C.ar    1  UNL1        0.0404
      6 C         139.3319  143.9246  164.2256 C.ar    1  UNL1        0.0240
      7 C         139.3348  142.4621  163.8922 C.ar    1  UNL1        0.1015
      8 N         139.4915  142.0178  162.4681 N.ar    1  UNL1       -0.1638
      9 N         139.6452  143.0359  161.3774 N.ar    1  UNL1       -0.2107
     10 C         139.9909  139.0335  157.5964 C.ar    1  UNL1        0.1807
     11 C         140.8636  139.2305  158.8004 C.ar    1  UNL1        0.0520
     12 C         140.8055  140.5191  159.5661 C.ar    1  UNL1        0.0060
     13 C         139.8747  141.6106  159.1279 C.ar    1  UNL1        0.0196
     14 C         139.0020  141.4136  157.9238 C.ar    1  UNL1        0.0060
     15 C         139.0601  140.1250  157.1581 C.ar    1  UNL1        0.0520
     16 C         141.3515  137.0142  156.6900 C.3     1  UNL1        0.3254
     17 S         140.0491  137.7450  156.8307 S.O     1  UNL1        0.0581
     18 O         138.8048  137.1872  156.2057 O.co2   1  UNL1       -0.6774
     19 C         139.1811  141.4439  164.9830 C.ar    1  UNL1        0.0206
     20 C         138.1929  140.3257  164.8313 C.ar    1  UNL1        0.0016
     21 C         138.0392  139.3075  165.9221 C.ar    1  UNL1        0.0014
     22 C         138.8736  139.4076  167.1645 C.ar    1  UNL1        0.0183
     23 C         139.8618  140.5260  167.3162 C.ar    1  UNL1        0.1056
     24 C         140.0155  141.5441  166.2254 C.ar    1  UNL1        0.0199
     25 S         140.6962  140.6261  168.5586 S.O2    1  UNL1        0.0070
     26 O         141.6388  141.5538  167.8509 O.2     1  UNL1       -0.1687
     27 O         139.7537  139.6984  169.2664 O.2     1  UNL1       -0.1687
     28 C         141.5307  140.7262  169.8011 C.3     1  UNL1        0.1339
     29 C         142.6875  140.2534  170.6305 C.3     1  UNL1        0.0257
     30 C         141.8191  141.3726  171.1236 C.3     1  UNL1        0.0257
@<TRIPOS>UNITY_ATOM_ATTR
17 1
charge 1
18 1
charge -1
@<TRIPOS>BOND
     1    16    17    1
     2    17    18    2
     3    17    10    1
     4    10    11   ar
     5    11    12   ar
     6    12    13   ar
     7    13     1    1
     8     1     2   ar
     9     2     3   ar
    10     3     4   ar
    11     4     5   ar
    12     5     6   ar
    13     6     7   ar
    14     7    19    1
    15    19    20   ar
    16    20    21   ar
    17    21    22   ar
    18    22    23   ar
    19    23    25    1
    20    25    26    2
    21    25    27    2
    22    25    28    1
    23    28    29    1
    24    29    30    1
    25    23    24   ar
    26     7     8   ar
    27     8     9   ar
    28    13    14   ar
    29    14    15   ar
    30    15    10   ar
    31     9     1   ar
    32     9     4   ar
    33    24    19   ar
    34    30    28    1
@<TRIPOS>MOLECULE
*****
 30 34 0 0 0
SMALL
GASTEIGER

@<TRIPOS>ATOM
      1 C         139.5514  139.4062  165.4688 C.ar    1  UNL1        0.1035
      2 C         138.5713  138.2772  165.5911 C.ar    1  UNL1        0.1197
      3 N         138.5255  137.5587  164.2752 N.ar    1  UNL1       -0.2234
      4 C         139.4772  138.2436  163.3396 C.ar    1  UNL1        0.1639
      5 C         139.8483  137.9751  161.9113 C.ar    1  UNL1        0.0404
      6 C         140.8535  138.8483  161.2208 C.ar    1  UNL1        0.0240
      7 C         141.4876  139.9901  161.9585 C.ar    1  UNL1        0.1015
      8 N         141.1164  140.2587  163.3868 N.ar    1  UNL1       -0.1638
      9 N         140.1112  139.3854  164.0774 N.ar    1  UNL1       -0.2107
     10 C         140.6239  142.3404  168.7078 C.ar    1  UNL1        0.1807
     11 C         140.3157  140.9150  169.0590 C.ar    1  UNL1        0.0520
     12 C         139.9582  139.9370  167.9794 C.ar    1  UNL1        0.0060
     13 C         139.9089  140.3842  166.5485 C.ar    1  UNL1        0.0196
     14 C         140.2171  141.8096  166.1972 C.ar    1  UNL1        0.0060
     15 C         140.5746  142.7877  167.2769 C.ar    1  UNL1        0.0520
     16 C         142.3517  143.2949  170.3970 C.3     1  UNL1        0.3254
     17 S         140.9814  143.3184  169.7874 S.O     1  UNL1        0.0581
     18 O         139.9685  144.3199  170.2574 O.co2   1  UNL1       -0.6774
     19 C         142.4928  140.8634  161.2679 C.ar    1  UNL1        0.0206
     20 C         142.9896  142.1100  161.9381 C.ar    1  UNL1        0.0016
     21 C         143.9948  142.9832  161.2475 C.ar    1  UNL1        0.0014
     22 C         144.5033  142.6099  159.8866 C.ar    1  UNL1        0.0183
     23 C         144.0065  141.3633  159.2163 C.ar    1  UNL1        0.1056
     24 C         143.0013  140.4901  159.9069 C.ar    1  UNL1        0.0199
     25 S         144.5149  140.9899  157.8554 S.O2    1  UNL1        0.0070
     26 O         144.0940  139.5691  158.0879 O.2     1  UNL1       -0.1687
     27 O         144.9359  142.4107  157.6229 O.2     1  UNL1       -0.1687
     28 C         145.0234  140.6166  156.4945 C.3     1  UNL1        0.1339
     29 C         145.7775  140.9710  155.2472 C.3     1  UNL1        0.0257
     30 C         145.1499  139.6155  155.3846 C.3     1  UNL1        0.0257
@<TRIPOS>UNITY_ATOM_ATTR
17 1
charge 1
18 1
charge -1
@<TRIPOS>BOND
     1    16    17    1
     2    17    18    2
     3    17    10    1
     4    10    11   ar
     5    11    12   ar
     6    12    13   ar
     7    13     1    1
     8     1     2   ar
     9     2     3   ar
    10     3     4   ar
    11     4     5   ar
    12     5     6   ar
    13     6     7   ar
    14     7    19    1
    15    19    20   ar
    16    20    21   ar
    17    21    22   ar
    18    22    23   ar
    19    23    25    1
    20    25    26    2
    21    25    27    2
    22    25    28    1
    23    28    29    1
    24    29    30    1
    25    23    24   ar
    26     7     8   ar
    27     8     9   ar
    28    13    14   ar
    29    14    15   ar
    30    15    10   ar
    31     9     1   ar
    32     9     4   ar
    33    24    19   ar
    34    30    28    1
@<TRIPOS>MOLECULE
*****
 30 34 0 0 0
SMALL
GASTEIGER

@<TRIPOS>ATOM
      1 C         143.1744  139.9015  165.4503 C.ar    1  UNL1        0.1035
      2 C         144.2223  138.8306  165.3791 C.ar    1  UNL1        0.1197
      3 N         144.9125  138.9450  164.0522 N.ar    1  UNL1       -0.2234
      4 C         144.2911  140.0866  163.3034 C.ar    1  UNL1        0.1639
      5 C         144.5647  140.6642  161.9464 C.ar    1  UNL1        0.0404
      6 C         143.7640  141.8329  161.4534 C.ar    1  UNL1        0.0240
      7 C         142.6898  142.4240  162.3175 C.ar    1  UNL1        0.1015
      8 N         142.4163  141.8465  163.6745 N.ar    1  UNL1       -0.1638
      9 N         143.2169  140.6778  164.1675 N.ar    1  UNL1       -0.2107
     10 C         140.3915  140.6536  168.9058 C.ar    1  UNL1        0.1807
     11 C         141.7132  139.9838  169.1392 C.ar    1  UNL1        0.0520
     12 C         142.6408  139.7331  167.9874 C.ar    1  UNL1        0.0060
     13 C         142.2468  140.1522  166.6021 C.ar    1  UNL1        0.0196
     14 C         140.9251  140.8221  166.3687 C.ar    1  UNL1        0.0060
     15 C         139.9975  141.0728  167.5205 C.ar    1  UNL1        0.0520
     16 C         139.4302  142.2528  170.7137 C.3     1  UNL1        0.3254
     17 S         139.4639  140.9043  170.0576 S.O     1  UNL1        0.0581
     18 O         138.5701  139.8065  170.5533 O.co2   1  UNL1       -0.6774
     19 C         141.8892  143.5928  161.8245 C.ar    1  UNL1        0.0206
     20 C         141.0966  144.4206  162.7922 C.ar    1  UNL1        0.0016
     21 C         140.2959  145.5894  162.2992 C.ar    1  UNL1        0.0014
     22 C         140.2879  145.9303  160.8384 C.ar    1  UNL1        0.0183
     23 C         141.0806  145.1024  159.8707 C.ar    1  UNL1        0.1056
     24 C         141.8812  143.9337  160.3638 C.ar    1  UNL1        0.0199
     25 S         141.0726  145.4433  158.4100 S.O2    1  UNL1        0.0070
     26 O         142.4959  144.9840  158.2950 O.2     1  UNL1       -0.1687
     27 O         139.6493  145.9027  158.5250 O.2     1  UNL1       -0.1687
     28 C         141.0646  145.7843  156.9493 C.3     1  UNL1        0.1339
     29 C         140.5087  146.5764  155.8033 C.3     1  UNL1        0.0257
     30 C         141.6068  145.5826  155.5653 C.3     1  UNL1        0.0257
@<TRIPOS>UNITY_ATOM_ATTR
17 1
charge 1
18 1
charge -1
@<TRIPOS>BOND
     1    16    17    1
     2    17    18    2
     3    17    10    1
     4    10    11   ar
     5    11    12   ar
     6    12    13   ar
     7    13     1    1
     8     1     2   ar
     9     2     3   ar
    10     3     4   ar
    11     4     5   ar
    12     5     6   ar
    13     6     7   ar
    14     7    19    1
    15    19    20   ar
    16    20    21   ar
    17    21    22   ar
    18    22    23   ar
    19    23    25    1
    20    25    26    2
    21    25    27    2
    22    25    28    1
    23    28    29    1
    24    29    30    1
    25    23    24   ar
    26     7     8   ar
    27     8     9   ar
    28    13    14   ar
    29    14    15   ar
    30    15    10   ar
    31     9     1   ar
    32     9     4   ar
    33    24    19   ar
    34    30    28    1
@<TRIPOS>MOLECULE
*****
 30 34 0 0 0
SMALL
GASTEIGER

@<TRIPOS>ATOM
      1 C         134.9256  140.9274  155.0783 C.ar    1  UNL1        0.1035
      2 C         135.1366  141.3677  153.6600 C.ar    1  UNL1        0.1197
      3 N         136.5816  141.7366  153.4994 N.ar    1  UNL1       -0.2234
      4 C         137.2637  141.5243  154.8184 C.ar    1  UNL1        0.1639
      5 C         138.6845  141.7218  155.2569 C.ar    1  UNL1        0.0404
      6 C         139.0817  141.4191  156.6712 C.ar    1  UNL1        0.0240
      7 C         138.0582  140.9191  157.6471 C.ar    1  UNL1        0.1015
      8 N         136.6375  140.7216  157.2086 N.ar    1  UNL1       -0.1638
      9 N         136.2402  141.0242  155.7942 N.ar    1  UNL1       -0.2107
     10 C         131.0323  139.5568  156.8711 C.ar    1  UNL1        0.1807
     11 C         131.0946  140.8488  156.1115 C.ar    1  UNL1        0.0520
     12 C         132.3924  141.3056  155.5139 C.ar    1  UNL1        0.0060
     13 C         133.6278  140.4706  155.6759 C.ar    1  UNL1        0.0196
     14 C         133.5655  139.1786  156.4355 C.ar    1  UNL1        0.0060
     15 C         132.2677  138.7217  157.0331 C.ar    1  UNL1        0.0520
     16 C         129.7361  138.1356  158.6175 C.3     1  UNL1        0.3254
     17 S         129.7345  139.1000  157.4687 S.O     1  UNL1        0.0581
     18 O         128.4352  139.6076  156.9173 O.co2   1  UNL1       -0.6774
     19 C         138.4556  140.6164  159.0616 C.ar    1  UNL1        0.0206
     20 C         138.9165  139.2381  159.4326 C.ar    1  UNL1        0.0016
     21 C         139.3138  138.9355  160.8471 C.ar    1  UNL1        0.0014
     22 C         139.2502  140.0112  161.8904 C.ar    1  UNL1        0.0183
     23 C         138.7893  141.3897  161.5194 C.ar    1  UNL1        0.1056
     24 C         138.3920  141.6922  160.1050 C.ar    1  UNL1        0.0199
     25 S         138.7257  142.4654  162.5627 S.O2    1  UNL1        0.0070
     26 O         139.6323  141.6615  163.4469 O.2     1  UNL1       -0.1687
     27 O         137.8191  143.2694  161.6786 O.2     1  UNL1       -0.1687
     28 C         138.6622  143.5412  163.6061 C.3     1  UNL1        0.1339
     29 C         139.3119  144.6717  164.3476 C.3     1  UNL1        0.0257
     30 C         137.9023  144.2740  164.6718 C.3     1  UNL1        0.0257
@<TRIPOS>UNITY_ATOM_ATTR
17 1
charge 1
18 1
charge -1
@<TRIPOS>BOND
     1    16    17    1
     2    17    18    2
     3    17    10    1
     4    10    11   ar
     5    11    12   ar
     6    12    13   ar
     7    13     1    1
     8     1     2   ar
     9     2     3   ar
    10     3     4   ar
    11     4     5   ar
    12     5     6   ar
    13     6     7   ar
    14     7    19    1
    15    19    20   ar
    16    20    21   ar
    17    21    22   ar
    18    22    23   ar
    19    23    25    1
    20    25    26    2
    21    25    27    2
    22    25    28    1
    23    28    29    1
    24    29    30    1
    25    23    24   ar
    26     7     8   ar
    27     8     9   ar
    28    13    14   ar
    29    14    15   ar
    30    15    10   ar
    31     9     1   ar
    32     9     4   ar
    33    24    19   ar
    34    30    28    1
@<TRIPOS>MOLECULE
*****
 30 34 0 0 0
SMALL
GASTEIGER

@<TRIPOS>ATOM
      1 C         139.8423  143.2845  164.8634 C.ar    1  UNL1        0.1035
      2 C         138.7944  144.3573  164.8318 C.ar    1  UNL1        0.1197
      3 N         138.1616  144.3472  163.4719 N.ar    1  UNL1       -0.2234
      4 C         138.8184  143.2682  162.6630 C.ar    1  UNL1        0.1639
      5 C         138.6047  142.7989  161.2544 C.ar    1  UNL1        0.0404
      6 C         139.4299  141.6728  160.7058 C.ar    1  UNL1        0.0240
      7 C         140.4687  141.0160  161.5658 C.ar    1  UNL1        0.1015
      8 N         140.6823  141.4853  162.9744 N.ar    1  UNL1       -0.1638
      9 N         139.8571  142.6114  163.5229 N.ar    1  UNL1       -0.2107
     10 C         142.4789  142.2644  168.3645 C.ar    1  UNL1        0.1807
     11 C         141.0377  142.6150  168.5880 C.ar    1  UNL1        0.0520
     12 C         140.1588  142.9551  167.4209 C.ar    1  UNL1        0.0060
     13 C         140.7211  142.9445  166.0304 C.ar    1  UNL1        0.0196
     14 C         142.1624  142.5939  165.8069 C.ar    1  UNL1        0.0060
     15 C         143.0413  142.2539  166.9740 C.ar    1  UNL1        0.0520
     16 C         143.0816  140.6950  170.3453 C.3     1  UNL1        0.3254
     17 S         143.3577  141.9244  169.5316 S.O     1  UNL1        0.0581
     18 O         144.5127  142.8139  169.8849 O.co2   1  UNL1       -0.6774
     19 C         141.2939  139.8899  161.0172 C.ar    1  UNL1        0.0206
     20 C         142.3463  139.2463  161.8705 C.ar    1  UNL1        0.0016
     21 C         143.1715  138.1201  161.3219 C.ar    1  UNL1        0.0014
     22 C         142.9442  137.6377  159.9199 C.ar    1  UNL1        0.0183
     23 C         141.8917  138.2813  159.0665 C.ar    1  UNL1        0.1056
     24 C         141.0666  139.4074  159.6152 C.ar    1  UNL1        0.0199
     25 S         141.6645  137.7988  157.6646 S.O2    1  UNL1        0.0070
     26 O         140.1876  137.9980  157.8354 O.2     1  UNL1       -0.1687
     27 O         143.1413  137.5996  157.4937 O.2     1  UNL1       -0.1687
     28 C         141.4372  137.3163  156.2626 C.3     1  UNL1        0.1339
     29 C         140.8052  136.3460  155.3091 C.3     1  UNL1        0.0257
     30 C         141.6755  137.4509  154.7878 C.3     1  UNL1        0.0257
@<TRIPOS>UNITY_ATOM_ATTR
17 1
charge 1
18 1
charge -1
@<TRIPOS>BOND
     1    16    17    1
     2    17    18    2
     3    17    10    1
     4    10    11   ar
     5    11    12   ar
     6    12    13   ar
     7    13     1    1
     8     1     2   ar
     9     2     3   ar
    10     3     4   ar
    11     4     5   ar
    12     5     6   ar
    13     6     7   ar
    14     7    19    1
    15    19    20   ar
    16    20    21   ar
    17    21    22   ar
    18    22    23   ar
    19    23    25    1
    20    25    26    2
    21    25    27    2
    22    25    28    1
    23    28    29    1
    24    29    30    1
    25    23    24   ar
    26     7     8   ar
    27     8     9   ar
    28    13    14   ar
    29    14    15   ar
    30    15    10   ar
    31     9     1   ar
    32     9     4   ar
    33    24    19   ar
    34    30    28    1
