@<TRIPOS>MOLECULE
*****
 31 35 0 0 0
SMALL
GASTEIGER

@<TRIPOS>ATOM
      1 C         141.3432  139.1719  163.4844 C.ar    1  UNL1        0.0878
      2 C         140.6264  138.3731  162.4364 C.ar    1  UNL1        0.0091
      3 C         139.2842  137.7748  162.7370 C.ar    1  UNL1        0.0194
      4 C         138.6588  137.9751  164.0856 C.ar    1  UNL1        0.0844
      5 N         139.3755  138.7739  165.1336 N.ar    1  UNL1       -0.2576
      6 C         138.7501  138.9742  166.4822 C.ar    1  UNL1        0.2672
      7 O         137.4079  138.3758  166.7828 O.2     1  UNL1       -0.2665
      8 C         139.4669  139.7730  167.5301 C.ar    1  UNL1        0.0742
      9 C         138.8415  139.9734  168.8787 C.ar    1  UNL1        0.0063
     10 C         139.5583  140.7721  169.9267 C.ar    1  UNL1        0.0003
     11 C         140.9005  141.3706  169.6260 C.ar    1  UNL1        0.0015
     12 C         141.6173  142.1693  170.6740 C.ar    1  UNL1        0.0000
     13 C         142.9595  142.7677  170.3733 C.ar    1  UNL1        0.0000
     14 C         143.5849  142.5673  169.0247 C.ar    1  UNL1        0.0000
     15 C         142.8681  141.7686  167.9768 C.ar    1  UNL1        0.0015
     16 C         141.5259  141.1702  168.2774 C.ar    1  UNL1        0.0179
     17 C         140.8091  140.3714  167.2295 C.ar    1  UNL1        0.0875
     18 N         141.4345  140.1710  165.8809 N.ar    1  UNL1       -0.2276
     19 C         140.7178  139.3723  164.8330 C.ar    1  UNL1        0.1543
     20 O         142.9345  140.4254  161.8574 O.2     1  UNL1       -0.2700
     21 C         142.6854  139.7703  163.1837 C.2     1  UNL1        0.2488
     22 N         143.7786  139.7137  164.2093 N.am    1  UNL1       -0.2994
     23 H         143.6151  139.2838  165.0797 H       1  UNL1        0.1498
     24 C         145.1208  140.3121  163.9086 C.3     1  UNL1        0.1070
     25 C         145.3958  141.7467  164.2496 C.3     1  UNL1        0.0937
     26 N         144.4306  142.8156  163.8303 N.3     1  UNL1       -0.2689
     27 C         144.4531  143.5631  162.5300 C.3     1  UNL1        0.0751
     28 C         143.3099  144.5342  162.5336 C.3     1  UNL1        0.0540
     29 C         142.5808  144.3868  163.8363 C.3     1  UNL1        0.1782
     30 F         141.3714  145.1650  164.2626 F       1  UNL1       -0.2357
     31 C         143.2735  143.3247  164.6376 C.3     1  UNL1        0.1078
@<TRIPOS>BOND
     1    20    21    2
     2    21    22   am
     3    22    24    1
     4    24    25    1
     5    25    26    1
     6    26    27    1
     7    27    28    1
     8    28    29    1
     9    29    30    1
    10    29    31    1
    11    21     1    1
    12     1     2   ar
    13     2     3   ar
    14     3     4   ar
    15     4     5   ar
    16     5     6   ar
    17     6     7    2
    18     6     8   ar
    19     8     9   ar
    20     9    10   ar
    21    10    11   ar
    22    11    12   ar
    23    12    13   ar
    24    13    14   ar
    25    14    15   ar
    26    15    16   ar
    27    16    17   ar
    28    17    18   ar
    29    18    19   ar
    30    31    26    1
    31    19     1   ar
    32    19     5   ar
    33    17     8   ar
    34    16    11   ar
    35    22    23    1
@<TRIPOS>MOLECULE
*****
 31 35 0 0 0
SMALL
GASTEIGER

@<TRIPOS>ATOM
      1 C         139.3262  142.8581  160.9740 C.ar    1  UNL1        0.0878
      2 C         138.9820  142.6780  159.5251 C.ar    1  UNL1        0.0091
      3 C         138.4024  141.3796  159.0477 C.ar    1  UNL1        0.0194
      4 C         138.1669  140.2611  160.0191 C.ar    1  UNL1        0.0844
      5 N         138.5110  140.4411  161.4679 N.ar    1  UNL1       -0.2576
      6 C         138.2755  139.3227  162.4393 C.ar    1  UNL1        0.2672
      7 O         137.6959  138.0242  161.9619 O.2     1  UNL1       -0.2665
      8 C         138.6197  139.5028  163.8882 C.ar    1  UNL1        0.0742
      9 C         138.3842  138.3843  164.8596 C.ar    1  UNL1        0.0063
     10 C         138.7284  138.5643  166.3084 C.ar    1  UNL1        0.0003
     11 C         139.3080  139.8629  166.7859 C.ar    1  UNL1        0.0015
     12 C         139.6522  140.0429  168.2347 C.ar    1  UNL1        0.0000
     13 C         140.2318  141.3413  168.7122 C.ar    1  UNL1        0.0000
     14 C         140.4673  142.4598  167.7408 C.ar    1  UNL1        0.0000
     15 C         140.1231  142.2798  166.2919 C.ar    1  UNL1        0.0015
     16 C         139.5435  140.9813  165.8145 C.ar    1  UNL1        0.0179
     17 C         139.1993  140.8012  164.3656 C.ar    1  UNL1        0.0875
     18 N         139.4348  141.9197  163.3942 N.ar    1  UNL1       -0.2276
     19 C         139.0907  141.7397  161.9454 C.ar    1  UNL1        0.1543
     20 O         139.5504  145.4373  160.7561 O.2     1  UNL1       -0.2700
     21 C         139.9058  144.1566  161.4514 C.2     1  UNL1        0.2488
     22 N         140.8409  144.1744  162.6242 N.am    1  UNL1       -0.2994
     23 H         141.0741  143.3338  163.0806 H       1  UNL1        0.1498
     24 C         141.4205  145.4729  163.1016 C.3     1  UNL1        0.1070
     25 C         142.7485  145.4902  163.7988 C.3     1  UNL1        0.0937
     26 N         143.5308  144.2198  163.9538 N.3     1  UNL1       -0.2689
     27 C         143.5276  143.3236  165.1567 C.3     1  UNL1        0.0751
     28 C         144.4484  142.1724  164.8795 C.3     1  UNL1        0.0540
     29 C         145.0207  142.3571  163.5053 C.3     1  UNL1        0.1782
     30 F         145.9899  141.4378  162.8229 F       1  UNL1       -0.2357
     31 C         144.4535  143.6224  162.9332 C.3     1  UNL1        0.1078
@<TRIPOS>BOND
     1    20    21    2
     2    21    22   am
     3    22    24    1
     4    24    25    1
     5    25    26    1
     6    26    27    1
     7    27    28    1
     8    28    29    1
     9    29    30    1
    10    29    31    1
    11    21     1    1
    12     1     2   ar
    13     2     3   ar
    14     3     4   ar
    15     4     5   ar
    16     5     6   ar
    17     6     7    2
    18     6     8   ar
    19     8     9   ar
    20     9    10   ar
    21    10    11   ar
    22    11    12   ar
    23    12    13   ar
    24    13    14   ar
    25    14    15   ar
    26    15    16   ar
    27    16    17   ar
    28    17    18   ar
    29    18    19   ar
    30    31    26    1
    31    19     1   ar
    32    19     5   ar
    33    17     8   ar
    34    16    11   ar
    35    22    23    1
@<TRIPOS>MOLECULE
*****
 31 35 0 0 0
SMALL
GASTEIGER

@<TRIPOS>ATOM
      1 C         141.5621  143.7467  161.2266 C.ar    1  UNL1        0.0878
      2 C         140.9586  144.9057  160.4901 C.ar    1  UNL1        0.0091
      3 C         140.0074  145.8280  161.1933 C.ar    1  UNL1        0.0194
      4 C         139.6597  145.5913  162.6331 C.ar    1  UNL1        0.0844
      5 N         140.2631  144.4323  163.3697 N.ar    1  UNL1       -0.2576
      6 C         139.9154  144.1956  164.8095 C.ar    1  UNL1        0.2672
      7 O         138.9642  145.1179  165.5127 O.2     1  UNL1       -0.2665
      8 C         140.5189  143.0366  165.5461 C.ar    1  UNL1        0.0742
      9 C         140.1711  142.7999  166.9859 C.ar    1  UNL1        0.0063
     10 C         140.7746  141.6410  167.7225 C.ar    1  UNL1        0.0003
     11 C         141.7258  140.7186  167.0192 C.ar    1  UNL1        0.0015
     12 C         142.3293  139.5596  167.7558 C.ar    1  UNL1        0.0000
     13 C         143.2805  138.6374  167.0526 C.ar    1  UNL1        0.0000
     14 C         143.6282  138.8740  165.6128 C.ar    1  UNL1        0.0000
     15 C         143.0248  140.0330  164.8762 C.ar    1  UNL1        0.0015
     16 C         142.0736  140.9553  165.5794 C.ar    1  UNL1        0.0179
     17 C         141.4701  142.1143  164.8429 C.ar    1  UNL1        0.0875
     18 N         141.8178  142.3510  163.4030 N.ar    1  UNL1       -0.2276
     19 C         141.2144  143.5100  162.6665 C.ar    1  UNL1        0.1543
     20 O         143.8959  143.2933  160.1787 O.2     1  UNL1       -0.2700
     21 C         142.5133  142.8244  160.5234 C.2     1  UNL1        0.2488
     22 N         142.0820  141.4332  160.1648 N.am    1  UNL1       -0.2994
     23 H         141.1746  141.1254  160.3910 H       1  UNL1        0.1498
     24 C         143.0333  140.5109  159.4616 C.3     1  UNL1        0.1070
     25 C         142.9316  139.0287  159.6682 C.3     1  UNL1        0.0937
     26 N         142.0647  138.4818  160.7633 N.3     1  UNL1       -0.2689
     27 C         140.5649  138.4556  160.7706 C.3     1  UNL1        0.0751
     28 C         140.1185  137.8227  162.0552 C.3     1  UNL1        0.0540
     29 C         141.3425  137.4577  162.8418 C.3     1  UNL1        0.1782
     30 F         141.3606  136.8008  164.1902 F       1  UNL1       -0.2357
     31 C         142.5452  137.8651  162.0434 C.3     1  UNL1        0.1078
@<TRIPOS>BOND
     1    20    21    2
     2    21    22   am
     3    22    24    1
     4    24    25    1
     5    25    26    1
     6    26    27    1
     7    27    28    1
     8    28    29    1
     9    29    30    1
    10    29    31    1
    11    21     1    1
    12     1     2   ar
    13     2     3   ar
    14     3     4   ar
    15     4     5   ar
    16     5     6   ar
    17     6     7    2
    18     6     8   ar
    19     8     9   ar
    20     9    10   ar
    21    10    11   ar
    22    11    12   ar
    23    12    13   ar
    24    13    14   ar
    25    14    15   ar
    26    15    16   ar
    27    16    17   ar
    28    17    18   ar
    29    18    19   ar
    30    31    26    1
    31    19     1   ar
    32    19     5   ar
    33    17     8   ar
    34    16    11   ar
    35    22    23    1
@<TRIPOS>MOLECULE
*****
 31 35 0 0 0
SMALL
GASTEIGER

@<TRIPOS>ATOM
      1 C         141.6500  139.0275  163.6803 C.ar    1  UNL1        0.0878
      2 C         140.9915  138.2236  162.5984 C.ar    1  UNL1        0.0091
      3 C         139.6099  137.6774  162.8053 C.ar    1  UNL1        0.0194
      4 C         138.8867  137.9350  164.0939 C.ar    1  UNL1        0.0844
      5 N         139.5451  138.7388  165.1757 N.ar    1  UNL1       -0.2576
      6 C         138.8219  138.9964  166.4644 C.ar    1  UNL1        0.2672
      7 O         137.4404  138.4502  166.6713 O.2     1  UNL1       -0.2665
      8 C         139.4804  139.8002  167.5463 C.ar    1  UNL1        0.0742
      9 C         138.7572  140.0578  168.8349 C.ar    1  UNL1        0.0063
     10 C         139.4156  140.8617  169.9167 C.ar    1  UNL1        0.0003
     11 C         140.7973  141.4079  169.7099 C.ar    1  UNL1        0.0015
     12 C         141.4557  142.2117  170.7917 C.ar    1  UNL1        0.0000
     13 C         142.8372  142.7579  170.5849 C.ar    1  UNL1        0.0000
     14 C         143.5604  142.5004  169.2962 C.ar    1  UNL1        0.0000
     15 C         142.9020  141.6965  168.2144 C.ar    1  UNL1        0.0015
     16 C         141.5205  141.1503  168.4213 C.ar    1  UNL1        0.0179
     17 C         140.8620  140.3465  167.3394 C.ar    1  UNL1        0.0875
     18 N         141.5852  140.0889  166.0507 N.ar    1  UNL1       -0.2276
     19 C         140.9268  139.2851  164.9689 C.ar    1  UNL1        0.1543
     20 O         144.0767  138.7347  162.7998 O.2     1  UNL1       -0.2700
     21 C         143.0316  139.5737  163.4734 C.2     1  UNL1        0.2488
     22 N         143.3681  140.9589  163.9402 N.am    1  UNL1       -0.2994
     23 H         142.6821  141.5096  164.3824 H       1  UNL1        0.1498
     24 C         144.7498  141.5051  163.7333 C.3     1  UNL1        0.1070
     25 C         145.1742  141.9762  162.3740 C.3     1  UNL1        0.0937
     26 N         144.1407  142.3492  161.3529 N.3     1  UNL1       -0.2689
     27 C         143.2922  143.5861  161.3683 C.3     1  UNL1        0.0751
     28 C         142.4013  143.5522  160.1621 C.3     1  UNL1        0.0540
     29 C         142.6991  142.2942  159.4012 C.3     1  UNL1        0.1782
     30 F         142.0379  141.8566  158.1278 F       1  UNL1       -0.2357
     31 C         143.7740  141.5508  160.1371 C.3     1  UNL1        0.1078
@<TRIPOS>BOND
     1    20    21    2
     2    21    22   am
     3    22    24    1
     4    24    25    1
     5    25    26    1
     6    26    27    1
     7    27    28    1
     8    28    29    1
     9    29    30    1
    10    29    31    1
    11    21     1    1
    12     1     2   ar
    13     2     3   ar
    14     3     4   ar
    15     4     5   ar
    16     5     6   ar
    17     6     7    2
    18     6     8   ar
    19     8     9   ar
    20     9    10   ar
    21    10    11   ar
    22    11    12   ar
    23    12    13   ar
    24    13    14   ar
    25    14    15   ar
    26    15    16   ar
    27    16    17   ar
    28    17    18   ar
    29    18    19   ar
    30    31    26    1
    31    19     1   ar
    32    19     5   ar
    33    17     8   ar
    34    16    11   ar
    35    22    23    1
@<TRIPOS>MOLECULE
*****
 31 35 0 0 0
SMALL
GASTEIGER

@<TRIPOS>ATOM
      1 C         142.9734  142.1731  167.5714 C.ar    1  UNL1        0.0878
      2 C         143.2422  142.7650  168.9232 C.ar    1  UNL1        0.0091
      3 C         142.3340  142.4490  170.0744 C.ar    1  UNL1        0.0194
      4 C         141.1570  141.5410  169.8738 C.ar    1  UNL1        0.0844
      5 N         140.8881  140.9491  168.5220 N.ar    1  UNL1       -0.2576
      6 C         139.7111  140.0412  168.3214 C.ar    1  UNL1        0.2672
      7 O         138.8029  139.7251  169.4726 O.2     1  UNL1       -0.2665
      8 C         139.4423  139.4493  166.9696 C.ar    1  UNL1        0.0742
      9 C         138.2653  138.5413  166.7690 C.ar    1  UNL1        0.0063
     10 C         137.9964  137.9495  165.4172 C.ar    1  UNL1        0.0003
     11 C         138.9046  138.2655  164.2659 C.ar    1  UNL1        0.0015
     12 C         138.6358  137.6736  162.9142 C.ar    1  UNL1        0.0000
     13 C         139.5440  137.9897  161.7630 C.ar    1  UNL1        0.0000
     14 C         140.7210  138.8976  161.9636 C.ar    1  UNL1        0.0000
     15 C         140.9898  139.4895  163.3154 C.ar    1  UNL1        0.0015
     16 C         140.0817  139.1735  164.4665 C.ar    1  UNL1        0.0179
     17 C         140.3505  139.7654  165.8184 C.ar    1  UNL1        0.0875
     18 N         141.5275  140.6733  166.0190 N.ar    1  UNL1       -0.2276
     19 C         141.7963  141.2652  167.3708 C.ar    1  UNL1        0.1543
     20 O         144.6995  143.7466  166.4334 O.2     1  UNL1       -0.2700
     21 C         143.8816  142.4892  166.4202 C.2     1  UNL1        0.2488
     22 N         143.9719  141.5480  165.2558 N.am    1  UNL1       -0.2994
     23 H         143.4351  140.7227  165.2471 H       1  UNL1        0.1498
     24 C         144.8801  141.8641  164.1045 C.3     1  UNL1        0.1070
     25 C         144.3695  142.6669  162.9449 C.3     1  UNL1        0.0937
     26 N         143.1721  143.5540  163.1161 N.3     1  UNL1       -0.2689
     27 C         143.1931  144.9886  163.5535 C.3     1  UNL1        0.0751
     28 C         141.7775  145.4835  163.5877 C.3     1  UNL1        0.0540
     29 C         140.8816  144.3546  163.1715 C.3     1  UNL1        0.1782
     30 F         139.3864  144.4088  163.0654 F       1  UNL1       -0.2357
     31 C         141.7436  143.1621  162.8800 C.3     1  UNL1        0.1078
@<TRIPOS>BOND
     1    20    21    2
     2    21    22   am
     3    22    24    1
     4    24    25    1
     5    25    26    1
     6    26    27    1
     7    27    28    1
     8    28    29    1
     9    29    30    1
    10    29    31    1
    11    21     1    1
    12     1     2   ar
    13     2     3   ar
    14     3     4   ar
    15     4     5   ar
    16     5     6   ar
    17     6     7    2
    18     6     8   ar
    19     8     9   ar
    20     9    10   ar
    21    10    11   ar
    22    11    12   ar
    23    12    13   ar
    24    13    14   ar
    25    14    15   ar
    26    15    16   ar
    27    16    17   ar
    28    17    18   ar
    29    18    19   ar
    30    31    26    1
    31    19     1   ar
    32    19     5   ar
    33    17     8   ar
    34    16    11   ar
    35    22    23    1
@<TRIPOS>MOLECULE
*****
 31 35 0 0 0
SMALL
GASTEIGER

@<TRIPOS>ATOM
      1 C         142.8185  141.2786  163.4469 C.ar    1  UNL1        0.0878
      2 C         143.5042  140.5579  162.3242 C.ar    1  UNL1        0.0091
      3 C         144.1975  139.2532  162.5830 C.ar    1  UNL1        0.0194
      4 C         144.2051  138.6691  163.9646 C.ar    1  UNL1        0.0844
      5 N         143.5194  139.3897  165.0873 N.ar    1  UNL1       -0.2576
      6 C         143.5270  138.8056  166.4689 C.ar    1  UNL1        0.2672
      7 O         144.2203  137.5009  166.7278 O.2     1  UNL1       -0.2665
      8 C         142.8413  139.5262  167.5916 C.ar    1  UNL1        0.0742
      9 C         142.8488  138.9421  168.9732 C.ar    1  UNL1        0.0063
     10 C         142.1632  139.6627  170.0959 C.ar    1  UNL1        0.0003
     11 C         141.4698  140.9675  169.8371 C.ar    1  UNL1        0.0015
     12 C         140.7842  141.6881  170.9598 C.ar    1  UNL1        0.0000
     13 C         140.0909  142.9928  170.7010 C.ar    1  UNL1        0.0000
     14 C         140.0833  143.5769  169.3194 C.ar    1  UNL1        0.0000
     15 C         140.7690  142.8563  168.1967 C.ar    1  UNL1        0.0015
     16 C         141.4622  141.5516  168.4555 C.ar    1  UNL1        0.0179
     17 C         142.1480  140.8309  167.3328 C.ar    1  UNL1        0.0875
     18 N         142.1404  141.4151  165.9512 N.ar    1  UNL1       -0.2276
     19 C         142.8261  140.6945  164.8285 C.ar    1  UNL1        0.1543
     20 O         141.5937  142.8917  161.8196 O.2     1  UNL1       -0.2700
     21 C         142.1252  142.5833  163.1881 C.2     1  UNL1        0.2488
     22 N         141.9634  143.5797  164.2976 N.am    1  UNL1       -0.2994
     23 H         142.3122  143.3773  165.1957 H       1  UNL1        0.1498
     24 C         141.2701  144.8845  164.0386 C.3     1  UNL1        0.1070
     25 C         139.7717  144.9526  164.0491 C.3     1  UNL1        0.0937
     26 N         138.9630  143.6922  163.9625 N.3     1  UNL1       -0.2689
     27 C         138.0486  143.3070  162.8375 C.3     1  UNL1        0.0751
     28 C         137.4472  141.9725  163.1653 C.3     1  UNL1        0.0540
     29 C         137.9899  141.5330  164.4929 C.3     1  UNL1        0.1782
     30 F         137.6547  140.2550  165.2031 F       1  UNL1       -0.2357
     31 C         138.9267  142.5959  164.9855 C.3     1  UNL1        0.1078
@<TRIPOS>BOND
     1    20    21    2
     2    21    22   am
     3    22    24    1
     4    24    25    1
     5    25    26    1
     6    26    27    1
     7    27    28    1
     8    28    29    1
     9    29    30    1
    10    29    31    1
    11    21     1    1
    12     1     2   ar
    13     2     3   ar
    14     3     4   ar
    15     4     5   ar
    16     5     6   ar
    17     6     7    2
    18     6     8   ar
    19     8     9   ar
    20     9    10   ar
    21    10    11   ar
    22    11    12   ar
    23    12    13   ar
    24    13    14   ar
    25    14    15   ar
    26    15    16   ar
    27    16    17   ar
    28    17    18   ar
    29    18    19   ar
    30    31    26    1
    31    19     1   ar
    32    19     5   ar
    33    17     8   ar
    34    16    11   ar
    35    22    23    1
@<TRIPOS>MOLECULE
*****
 31 35 0 0 0
SMALL
GASTEIGER

@<TRIPOS>ATOM
      1 C         142.0823  142.1110  162.0744 C.ar    1  UNL1        0.0878
      2 C         143.0301  142.7696  161.1163 C.ar    1  UNL1        0.0091
      3 C         144.2292  143.5066  161.6349 C.ar    1  UNL1        0.0194
      4 C         144.4806  143.5850  163.1116 C.ar    1  UNL1        0.0844
      5 N         143.5329  142.9264  164.0697 N.ar    1  UNL1       -0.2576
      6 C         143.7843  143.0048  165.5464 C.ar    1  UNL1        0.2672
      7 O         144.9834  143.7418  166.0650 O.2     1  UNL1       -0.2665
      8 C         142.8364  142.3462  166.5046 C.ar    1  UNL1        0.0742
      9 C         143.0878  142.4246  167.9813 C.ar    1  UNL1        0.0063
     10 C         142.1401  141.7661  168.9394 C.ar    1  UNL1        0.0003
     11 C         140.9409  141.0291  168.4208 C.ar    1  UNL1        0.0015
     12 C         139.9932  140.3705  169.3790 C.ar    1  UNL1        0.0000
     13 C         138.7940  139.6336  168.8604 C.ar    1  UNL1        0.0000
     14 C         138.5427  139.5552  167.3837 C.ar    1  UNL1        0.0000
     15 C         139.4904  140.2137  166.4256 C.ar    1  UNL1        0.0015
     16 C         140.6895  140.9507  166.9441 C.ar    1  UNL1        0.0179
     17 C         141.6373  141.6093  165.9860 C.ar    1  UNL1        0.0875
     18 N         141.3859  141.5309  164.5093 N.ar    1  UNL1       -0.2276
     19 C         142.3337  142.1894  163.5511 C.ar    1  UNL1        0.1543
     20 O         139.5487  141.5538  162.2169 O.2     1  UNL1       -0.2700
     21 C         140.8832  141.3741  161.5559 C.2     1  UNL1        0.2488
     22 N         141.0185  140.4574  160.3763 N.am    1  UNL1       -0.2994
     23 H         141.8943  140.3394  159.9425 H       1  UNL1        0.1498
     24 C         139.8193  139.7204  159.8577 C.3     1  UNL1        0.1070
     25 C         139.5370  138.3237  160.3262 C.3     1  UNL1        0.0937
     26 N         139.6585  137.9818  161.7816 N.3     1  UNL1       -0.2689
     27 C         138.5356  137.9457  162.7755 C.3     1  UNL1        0.0751
     28 C         139.1073  137.5575  164.1069 C.3     1  UNL1        0.0540
     29 C         140.5835  137.3537  163.9357 C.3     1  UNL1        0.1782
     30 F         141.5495  136.9574  165.0126 F       1  UNL1       -0.2357
     31 C         140.9241  137.6159  162.4986 C.3     1  UNL1        0.1078
@<TRIPOS>BOND
     1    20    21    2
     2    21    22   am
     3    22    24    1
     4    24    25    1
     5    25    26    1
     6    26    27    1
     7    27    28    1
     8    28    29    1
     9    29    30    1
    10    29    31    1
    11    21     1    1
    12     1     2   ar
    13     2     3   ar
    14     3     4   ar
    15     4     5   ar
    16     5     6   ar
    17     6     7    2
    18     6     8   ar
    19     8     9   ar
    20     9    10   ar
    21    10    11   ar
    22    11    12   ar
    23    12    13   ar
    24    13    14   ar
    25    14    15   ar
    26    15    16   ar
    27    16    17   ar
    28    17    18   ar
    29    18    19   ar
    30    31    26    1
    31    19     1   ar
    32    19     5   ar
    33    17     8   ar
    34    16    11   ar
    35    22    23    1
@<TRIPOS>MOLECULE
*****
 31 35 0 0 0
SMALL
GASTEIGER

@<TRIPOS>ATOM
      1 C         141.3773  140.9977  161.2126 C.ar    1  UNL1        0.0878
      2 C         141.2770  140.4535  159.8183 C.ar    1  UNL1        0.0091
      3 C         140.4441  139.2360  159.5465 C.ar    1  UNL1        0.0194
      4 C         139.7113  138.5627  160.6689 C.ar    1  UNL1        0.0844
      5 N         139.8115  139.1069  162.0631 N.ar    1  UNL1       -0.2576
      6 C         139.0788  138.4335  163.1854 C.ar    1  UNL1        0.2672
      7 O         138.2458  137.2161  162.9136 O.2     1  UNL1       -0.2665
      8 C         139.1790  138.9778  164.5797 C.ar    1  UNL1        0.0742
      9 C         138.4463  138.3044  165.7021 C.ar    1  UNL1        0.0063
     10 C         138.5465  138.8486  167.0963 C.ar    1  UNL1        0.0003
     11 C         139.3795  140.0661  167.3682 C.ar    1  UNL1        0.0015
     12 C         139.4797  140.6102  168.7623 C.ar    1  UNL1        0.0000
     13 C         140.3127  141.8277  169.0342 C.ar    1  UNL1        0.0000
     14 C         141.0454  142.5010  167.9118 C.ar    1  UNL1        0.0000
     15 C         140.9452  141.9568  166.5176 C.ar    1  UNL1        0.0015
     16 C         140.1122  140.7394  166.2458 C.ar    1  UNL1        0.0179
     17 C         140.0120  140.1952  164.8515 C.ar    1  UNL1        0.0875
     18 N         140.7447  140.8685  163.7292 N.ar    1  UNL1       -0.2276
     19 C         140.6445  140.3244  162.3350 C.ar    1  UNL1        0.1543
     20 O         142.4254  143.2333  160.4040 O.2     1  UNL1       -0.2700
     21 C         142.2102  142.2151  161.4844 C.2     1  UNL1        0.2488
     22 N         142.8281  142.4145  162.8366 N.am    1  UNL1       -0.2994
     23 H         142.6870  141.7463  163.5457 H       1  UNL1        0.1498
     24 C         143.6612  143.6321  163.1084 C.3     1  UNL1        0.1070
     25 C         142.9974  144.9405  163.4205 C.3     1  UNL1        0.0937
     26 N         141.5040  145.0601  163.3477 N.3     1  UNL1       -0.2689
     27 C         140.7207  145.6454  162.2102 C.3     1  UNL1        0.0751
     28 C         139.2642  145.5624  162.5592 C.3     1  UNL1        0.0540
     29 C         139.1474  144.9258  163.9124 C.3     1  UNL1        0.1782
     30 F         137.8705  144.6483  164.6490 F       1  UNL1       -0.2357
     31 C         140.5316  144.6154  164.3997 C.3     1  UNL1        0.1078
@<TRIPOS>BOND
     1    20    21    2
     2    21    22   am
     3    22    24    1
     4    24    25    1
     5    25    26    1
     6    26    27    1
     7    27    28    1
     8    28    29    1
     9    29    30    1
    10    29    31    1
    11    21     1    1
    12     1     2   ar
    13     2     3   ar
    14     3     4   ar
    15     4     5   ar
    16     5     6   ar
    17     6     7    2
    18     6     8   ar
    19     8     9   ar
    20     9    10   ar
    21    10    11   ar
    22    11    12   ar
    23    12    13   ar
    24    13    14   ar
    25    14    15   ar
    26    15    16   ar
    27    16    17   ar
    28    17    18   ar
    29    18    19   ar
    30    31    26    1
    31    19     1   ar
    32    19     5   ar
    33    17     8   ar
    34    16    11   ar
    35    22    23    1
@<TRIPOS>MOLECULE
*****
 31 35 0 0 0
SMALL
GASTEIGER

@<TRIPOS>ATOM
      1 C         140.2691  144.2289  160.3465 C.ar    1  UNL1        0.0878
      2 C         140.2765  144.8362  158.9749 C.ar    1  UNL1        0.0091
      3 C         139.7737  144.0471  157.8026 C.ar    1  UNL1        0.0194
      4 C         139.2633  142.6507  158.0018 C.ar    1  UNL1        0.0844
      5 N         139.2558  142.0435  159.3733 N.ar    1  UNL1       -0.2576
      6 C         138.7455  140.6471  159.5725 C.ar    1  UNL1        0.2672
      7 O         138.2426  139.8580  158.4002 O.2     1  UNL1       -0.2665
      8 C         138.7380  140.0398  160.9442 C.ar    1  UNL1        0.0742
      9 C         138.2276  138.6435  161.1434 C.ar    1  UNL1        0.0063
     10 C         138.2202  138.0362  162.5149 C.ar    1  UNL1        0.0003
     11 C         138.7230  138.8253  163.6873 C.ar    1  UNL1        0.0015
     12 C         138.7156  138.2181  165.0588 C.ar    1  UNL1        0.0000
     13 C         139.2184  139.0072  166.2312 C.ar    1  UNL1        0.0000
     14 C         139.7288  140.4035  166.0319 C.ar    1  UNL1        0.0000
     15 C         139.7363  141.0108  164.6604 C.ar    1  UNL1        0.0015
     16 C         139.2334  140.2217  163.4881 C.ar    1  UNL1        0.0179
     17 C         139.2409  140.8289  162.1165 C.ar    1  UNL1        0.0875
     18 N         139.7512  142.2253  161.9173 N.ar    1  UNL1       -0.2276
     19 C         139.7587  142.8326  160.5458 C.ar    1  UNL1        0.1543
     20 O         140.0836  146.2897  161.9178 O.2     1  UNL1       -0.2700
     21 C         140.7720  145.0181  161.5189 C.2     1  UNL1        0.2488
     22 N         141.9632  144.5356  162.2923 N.am    1  UNL1       -0.2994
     23 H         142.4150  143.7010  162.0305 H       1  UNL1        0.1498
     24 C         142.4660  145.3248  163.4647 C.3     1  UNL1        0.1070
     25 C         143.6441  144.8312  164.2512 C.3     1  UNL1        0.0937
     26 N         143.8213  143.3616  164.4939 N.3     1  UNL1       -0.2689
     27 C         142.9910  142.5129  165.4106 C.3     1  UNL1        0.0751
     28 C         143.5165  141.1095  165.3457 C.3     1  UNL1        0.0540
     29 C         144.6716  141.0908  164.3889 C.3     1  UNL1        0.1782
     30 F         145.4940  139.8909  164.0229 F       1  UNL1       -0.2357
     31 C         144.8600  142.4827  163.8625 C.3     1  UNL1        0.1078
@<TRIPOS>BOND
     1    20    21    2
     2    21    22   am
     3    22    24    1
     4    24    25    1
     5    25    26    1
     6    26    27    1
     7    27    28    1
     8    28    29    1
     9    29    30    1
    10    29    31    1
    11    21     1    1
    12     1     2   ar
    13     2     3   ar
    14     3     4   ar
    15     4     5   ar
    16     5     6   ar
    17     6     7    2
    18     6     8   ar
    19     8     9   ar
    20     9    10   ar
    21    10    11   ar
    22    11    12   ar
    23    12    13   ar
    24    13    14   ar
    25    14    15   ar
    26    15    16   ar
    27    16    17   ar
    28    17    18   ar
    29    18    19   ar
    30    31    26    1
    31    19     1   ar
    32    19     5   ar
    33    17     8   ar
    34    16    11   ar
    35    22    23    1
