@<TRIPOS>MOLECULE
*****
 37 40 0 0 0
SMALL
GASTEIGER

@<TRIPOS>ATOM
      1 C         141.5877  141.8237  163.4602 C.3     1  UNL1        0.1031
      2 C         141.9788  140.9907  167.8651 C.ar    1  UNL1        0.0536
      3 C         140.9541  140.2575  167.0513 C.ar    1  UNL1        0.0042
      4 C         140.8237  140.5352  165.5830 C.ar    1  UNL1       -0.0025
      5 C         141.7181  141.5460  164.9285 C.ar    1  UNL1       -0.0036
      6 C         142.7427  142.2792  165.7424 C.ar    1  UNL1       -0.0025
      7 C         142.8731  142.0015  167.2107 C.ar    1  UNL1        0.0042
      8 N         141.2022  141.4009  170.3102 N.am    1  UNL1       -0.2743
      9 C         141.3325  141.1233  171.7785 C.3     1  UNL1        0.1152
     10 C         142.1091  140.7130  169.3335 C.2     1  UNL1        0.2491
     11 O         143.1464  139.7475  169.8250 O.2     1  UNL1       -0.2699
     12 C         140.4786  143.8315  169.7454 C.3     1  UNL1        0.0233
     13 C         140.1648  142.3666  169.8187 C.3     1  UNL1        0.0938
     14 C         141.1137  143.1668  162.9901 C.ar    1  UNL1       -0.0024
     15 C         140.2429  144.0073  163.8764 C.ar    1  UNL1       -0.0026
     16 C         139.7688  145.3505  163.4063 C.ar    1  UNL1        0.0010
     17 C         140.1655  145.8533  162.0499 C.ar    1  UNL1        0.0147
     18 C         141.0363  145.0130  161.1637 C.ar    1  UNL1        0.0500
     19 C         141.5104  143.6697  161.6337 C.ar    1  UNL1        0.0120
     20 N         141.4330  145.5158  159.8073 N.am    1  UNL1       -0.2839
     21 C         140.6404  145.1166  158.5980 C.2     1  UNL1        0.2256
     22 O         139.4509  144.2145  158.7451 O.2     1  UNL1       -0.2748
     23 H         142.2137  146.1079  159.7107 H       1  UNL1        0.1549
     24 C         141.0371  145.6195  157.2417 C.3     1  UNL1        0.0768
     25 C         140.6949  146.3439  155.9736 C.3     1  UNL1        0.0096
     26 C         142.0664  145.7659  156.1605 C.3     1  UNL1        0.0096
     27 N         141.9314  140.7581  162.4620 N.3     1  UNL1       -0.2644
     28 C         140.8393  140.0340  161.7320 C.3     1  UNL1        0.0901
     29 C         141.1831  138.9684  160.7338 C.3     1  UNL1        0.0897
     30 N         142.6188  138.6270  160.4656 N.3     1  UNL1       -0.2702
     31 C         143.7109  139.3511  161.1957 C.3     1  UNL1        0.0897
     32 C         143.3672  140.4166  162.1938 C.3     1  UNL1        0.0901
     33 C         142.9626  137.5614  159.4674 C.3     1  UNL1        0.0748
     34 C         142.4661  137.6677  158.0559 C.3     1  UNL1        0.0494
     35 C         142.9700  138.7635  157.1642 C.3     1  UNL1        0.1437
     36 O         144.1862  139.5494  157.5556 O.3     1  UNL1       -0.3511
     37 C         144.0727  141.0197  157.8302 C.3     1  UNL1        0.1741
@<TRIPOS>BOND
     1    12    13    1
     2    13     8    1
     3     8     9    1
     4     8    10   am
     5    10    11    2
     6    10     2    1
     7     2     3   ar
     8     3     4   ar
     9     4     5   ar
    10     5     1    1
    11     1    14    1
    12    14    15   ar
    13    15    16   ar
    14    16    17   ar
    15    17    18   ar
    16    18    20    1
    17    20    21   am
    18    21    22    2
    19    21    24    1
    20    24    25    1
    21    25    26    1
    22    18    19   ar
    23     1    27    1
    24    27    28    1
    25    28    29    1
    26    29    30    1
    27    30    33    1
    28    33    34    1
    29    34    35    1
    30    35    36    1
    31    36    37    1
    32    30    31    1
    33    31    32    1
    34     5     6   ar
    35     6     7   ar
    36     7     2   ar
    37    19    14   ar
    38    32    27    1
    39    26    24    1
    40    20    23    1
@<TRIPOS>MOLECULE
*****
 37 40 0 0 0
SMALL
GASTEIGER

@<TRIPOS>ATOM
      1 C         141.4585  141.7397  162.5896 C.3     1  UNL1        0.1031
      2 C         141.9345  140.6748  166.9358 C.ar    1  UNL1        0.0536
      3 C         140.7162  140.2282  166.1833 C.ar    1  UNL1        0.0042
      4 C         140.5576  140.5831  164.7346 C.ar    1  UNL1       -0.0025
      5 C         141.6172  141.3847  164.0384 C.ar    1  UNL1       -0.0036
      6 C         142.8354  141.8313  164.7909 C.ar    1  UNL1       -0.0025
      7 C         142.9941  141.4763  166.2397 C.ar    1  UNL1        0.0042
      8 N         141.3642  141.1060  169.4336 N.am    1  UNL1       -0.2743
      9 C         141.5228  140.7511  170.8823 C.3     1  UNL1        0.1152
     10 C         142.0931  140.3198  168.3846 C.2     1  UNL1        0.2491
     11 O         142.9807  139.1786  168.7843 O.2     1  UNL1       -0.2699
     12 C         140.6541  143.5940  169.6700 C.3     1  UNL1        0.0233
     13 C         140.4765  142.2473  169.0339 C.3     1  UNL1        0.0938
     14 C         140.9942  143.1117  162.2001 C.ar    1  UNL1       -0.0024
     15 C         140.8697  144.1850  163.2407 C.ar    1  UNL1       -0.0026
     16 C         140.4054  145.5570  162.8512 C.ar    1  UNL1        0.0010
     17 C         140.0655  145.8560  161.4211 C.ar    1  UNL1        0.0147
     18 C         140.1900  144.7829  160.3806 C.ar    1  UNL1        0.0500
     19 C         140.6544  143.4107  160.7700 C.ar    1  UNL1        0.0120
     20 N         139.8502  145.0818  158.9505 N.am    1  UNL1       -0.2839
     21 C         140.9026  145.6179  158.0258 C.2     1  UNL1        0.2256
     22 O         142.2949  145.8550  158.5312 O.2     1  UNL1       -0.2748
     23 H         138.9365  144.9262  158.6188 H       1  UNL1        0.1549
     24 C         140.5628  145.9168  156.5957 C.3     1  UNL1        0.0768
     25 C         140.4860  145.4852  155.1612 C.3     1  UNL1        0.0096
     26 C         140.0511  146.8662  155.5533 C.3     1  UNL1        0.0096
     27 N         141.7642  140.7226  161.5304 N.3     1  UNL1       -0.2644
     28 C         143.1238  140.6837  160.8979 C.3     1  UNL1        0.0901
     29 C         143.4294  139.6665  159.8387 C.3     1  UNL1        0.0897
     30 N         142.3755  138.6883  159.4119 N.3     1  UNL1       -0.2702
     31 C         141.0159  138.7271  160.0444 C.3     1  UNL1        0.0897
     32 C         140.7102  139.7442  161.1036 C.3     1  UNL1        0.0901
     33 C         142.6811  137.6711  158.3526 C.3     1  UNL1        0.0748
     34 C         142.4020  137.9816  156.9119 C.3     1  UNL1        0.0494
     35 C         143.5387  138.1751  155.9526 C.3     1  UNL1        0.1437
     36 O         144.5122  137.0603  155.7085 O.3     1  UNL1       -0.3511
     37 C         144.0121  135.6654  155.4759 C.3     1  UNL1        0.1741
@<TRIPOS>BOND
     1    12    13    1
     2    13     8    1
     3     8     9    1
     4     8    10   am
     5    10    11    2
     6    10     2    1
     7     2     3   ar
     8     3     4   ar
     9     4     5   ar
    10     5     1    1
    11     1    14    1
    12    14    15   ar
    13    15    16   ar
    14    16    17   ar
    15    17    18   ar
    16    18    20    1
    17    20    21   am
    18    21    22    2
    19    21    24    1
    20    24    25    1
    21    25    26    1
    22    18    19   ar
    23     1    27    1
    24    27    28    1
    25    28    29    1
    26    29    30    1
    27    30    33    1
    28    33    34    1
    29    34    35    1
    30    35    36    1
    31    36    37    1
    32    30    31    1
    33    31    32    1
    34     5     6   ar
    35     6     7   ar
    36     7     2   ar
    37    19    14   ar
    38    32    27    1
    39    26    24    1
    40    20    23    1
@<TRIPOS>MOLECULE
*****
 37 40 0 0 0
SMALL
GASTEIGER

@<TRIPOS>ATOM
      1 C         140.8385  141.3073  164.0641 C.3     1  UNL1        0.1031
      2 C         142.2281  138.5224  160.8140 C.ar    1  UNL1        0.0536
      3 C         140.8644  138.3523  161.4151 C.ar    1  UNL1        0.0042
      4 C         140.4012  139.2806  162.4985 C.ar    1  UNL1       -0.0025
      5 C         141.3017  140.3790  162.9808 C.ar    1  UNL1       -0.0036
      6 C         142.6654  140.5491  162.3797 C.ar    1  UNL1       -0.0025
      7 C         143.1286  139.6208  161.2963 C.ar    1  UNL1        0.0042
      8 N         142.2971  137.8482  158.3059 N.am    1  UNL1       -0.2743
      9 C         142.7603  136.9199  157.2226 C.3     1  UNL1        0.1152
     10 C         142.6914  137.5941  159.7307 C.2     1  UNL1        0.2491
     11 O         143.5488  136.4117  160.0721 O.2     1  UNL1       -0.2699
     12 C         139.9538  138.8683  157.8389 C.3     1  UNL1        0.0233
     13 C         141.4396  139.0307  157.9645 C.3     1  UNL1        0.0938
     14 C         140.2560  142.6431  163.7089 C.ar    1  UNL1       -0.0024
     15 C         139.7396  143.5473  164.7886 C.ar    1  UNL1       -0.0026
     16 C         139.1571  144.8831  164.4334 C.ar    1  UNL1        0.0010
     17 C         139.0910  145.3149  162.9984 C.ar    1  UNL1        0.0147
     18 C         139.6074  144.4108  161.9186 C.ar    1  UNL1        0.0500
     19 C         140.1899  143.0749  162.2739 C.ar    1  UNL1        0.0120
     20 N         139.5413  144.8425  160.4836 N.am    1  UNL1       -0.2839
     21 C         140.8047  145.1317  159.7285 C.2     1  UNL1        0.2256
     22 O         142.1342  144.9892  160.4084 O.2     1  UNL1       -0.2748
     23 H         138.6688  144.9361  160.0374 H       1  UNL1        0.1549
     24 C         140.7386  145.5634  158.2935 C.3     1  UNL1        0.0768
     25 C         141.3166  145.5645  156.9094 C.3     1  UNL1        0.0096
     26 C         140.0462  146.3102  157.1922 C.3     1  UNL1        0.0096
     27 N         140.9577  140.8998  165.5027 N.3     1  UNL1       -0.2644
     28 C         142.2648  141.0584  166.2213 C.3     1  UNL1        0.0901
     29 C         142.3840  140.6509  167.6600 C.3     1  UNL1        0.0897
     30 N         141.1962  140.0847  168.3800 N.3     1  UNL1       -0.2702
     31 C         139.8891  139.9261  167.6615 C.3     1  UNL1        0.0897
     32 C         139.7698  140.3336  166.2228 C.3     1  UNL1        0.0901
     33 C         141.3154  139.6772  169.8187 C.3     1  UNL1        0.0748
     34 C         140.9224  140.6346  170.9045 C.3     1  UNL1        0.0494
     35 C         141.7107  141.8930  171.1162 C.3     1  UNL1        0.1437
     36 O         141.1194  143.2202  170.7432 O.3     1  UNL1       -0.3511
     37 C         140.4323  143.3900  169.4207 C.3     1  UNL1        0.1741
@<TRIPOS>BOND
     1    12    13    1
     2    13     8    1
     3     8     9    1
     4     8    10   am
     5    10    11    2
     6    10     2    1
     7     2     3   ar
     8     3     4   ar
     9     4     5   ar
    10     5     1    1
    11     1    14    1
    12    14    15   ar
    13    15    16   ar
    14    16    17   ar
    15    17    18   ar
    16    18    20    1
    17    20    21   am
    18    21    22    2
    19    21    24    1
    20    24    25    1
    21    25    26    1
    22    18    19   ar
    23     1    27    1
    24    27    28    1
    25    28    29    1
    26    29    30    1
    27    30    33    1
    28    33    34    1
    29    34    35    1
    30    35    36    1
    31    36    37    1
    32    30    31    1
    33    31    32    1
    34     5     6   ar
    35     6     7   ar
    36     7     2   ar
    37    19    14   ar
    38    32    27    1
    39    26    24    1
    40    20    23    1
@<TRIPOS>MOLECULE
*****
 37 40 0 0 0
SMALL
GASTEIGER

@<TRIPOS>ATOM
      1 C         141.6052  139.0259  158.4809 C.3     1  UNL1        0.1031
      2 C         141.7336  136.1468  155.0248 C.ar    1  UNL1        0.0536
      3 C         142.9600  136.3734  155.8582 C.ar    1  UNL1        0.0042
      4 C         142.9172  137.3331  157.0102 C.ar    1  UNL1       -0.0025
      5 C         141.6480  138.0662  157.3289 C.ar    1  UNL1       -0.0036
      6 C         140.4216  137.8396  156.4955 C.ar    1  UNL1       -0.0025
      7 C         140.4644  136.8799  155.3435 C.ar    1  UNL1        0.0042
      8 N         141.6287  133.7146  154.1175 N.am    1  UNL1       -0.2743
      9 C         141.6715  132.7549  152.9654 C.3     1  UNL1        0.1152
     10 C         141.7764  135.1871  153.8728 C.2     1  UNL1        0.2491
     11 O         141.9670  135.6999  152.4762 O.2     1  UNL1       -0.2699
     12 C         142.6032  132.6361  156.2709 C.3     1  UNL1        0.0233
     13 C         141.4381  133.2018  155.5142 C.3     1  UNL1        0.0938
     14 C         142.2228  140.3863  158.3471 C.ar    1  UNL1       -0.0024
     15 C         142.9567  140.7567  157.0924 C.ar    1  UNL1       -0.0026
     16 C         143.5742  142.1171  156.9586 C.ar    1  UNL1        0.0010
     17 C         143.4579  143.1071  158.0794 C.ar    1  UNL1        0.0147
     18 C         142.7240  142.7368  159.3341 C.ar    1  UNL1        0.0500
     19 C         142.1065  141.3763  159.4679 C.ar    1  UNL1        0.0120
     20 N         142.6077  143.7268  160.4550 N.am    1  UNL1       -0.2839
     21 C         143.2839  143.4577  161.7665 C.2     1  UNL1        0.2256
     22 O         144.0766  142.1985  161.9573 O.2     1  UNL1       -0.2748
     23 H         142.0875  144.5532  160.3298 H       1  UNL1        0.1549
     24 C         143.1676  144.4477  162.8874 C.3     1  UNL1        0.0768
     25 C         143.7991  145.2286  164.0015 C.3     1  UNL1        0.0096
     26 C         142.3347  145.3814  163.7146 C.3     1  UNL1        0.0096
     27 N         140.9449  138.6252  159.7667 N.3     1  UNL1       -0.2644
     28 C         139.4548  138.7242  159.9072 C.3     1  UNL1        0.0901
     29 C         138.7945  138.3235  161.1931 C.3     1  UNL1        0.0897
     30 N         139.6242  137.8238  162.3384 N.3     1  UNL1       -0.2702
     31 C         141.1144  137.7249  162.1979 C.3     1  UNL1        0.0897
     32 C         141.7747  138.1256  160.9121 C.3     1  UNL1        0.0901
     33 C         138.9639  137.4231  163.6243 C.3     1  UNL1        0.0748
     34 C         139.6473  137.6888  164.9329 C.3     1  UNL1        0.0494
     35 C         139.6554  139.0746  165.5069 C.3     1  UNL1        0.1437
     36 O         138.7368  139.4222  166.6406 O.3     1  UNL1       -0.3511
     37 C         137.6323  138.4833  167.0258 C.3     1  UNL1        0.1741
@<TRIPOS>BOND
     1    12    13    1
     2    13     8    1
     3     8     9    1
     4     8    10   am
     5    10    11    2
     6    10     2    1
     7     2     3   ar
     8     3     4   ar
     9     4     5   ar
    10     5     1    1
    11     1    14    1
    12    14    15   ar
    13    15    16   ar
    14    16    17   ar
    15    17    18   ar
    16    18    20    1
    17    20    21   am
    18    21    22    2
    19    21    24    1
    20    24    25    1
    21    25    26    1
    22    18    19   ar
    23     1    27    1
    24    27    28    1
    25    28    29    1
    26    29    30    1
    27    30    33    1
    28    33    34    1
    29    34    35    1
    30    35    36    1
    31    36    37    1
    32    30    31    1
    33    31    32    1
    34     5     6   ar
    35     6     7   ar
    36     7     2   ar
    37    19    14   ar
    38    32    27    1
    39    26    24    1
    40    20    23    1
@<TRIPOS>MOLECULE
*****
 37 40 0 0 0
SMALL
GASTEIGER

@<TRIPOS>ATOM
      1 C         141.5682  139.0808  158.0385 C.3     1  UNL1        0.1031
      2 C         139.4816  139.3410  162.0170 C.ar    1  UNL1        0.0536
      3 C         140.8104  140.0089  161.8219 C.ar    1  UNL1        0.0042
      4 C         141.5059  139.9222  160.4958 C.ar    1  UNL1       -0.0025
      5 C         140.8727  139.1675  159.3647 C.ar    1  UNL1       -0.0036
      6 C         139.5439  138.4996  159.5598 C.ar    1  UNL1       -0.0025
      7 C         138.8483  138.5863  160.8859 C.ar    1  UNL1        0.0042
      8 N         139.1331  138.4615  164.4367 N.am    1  UNL1       -0.2743
      9 C         138.4376  138.5482  165.7629 C.3     1  UNL1        0.1152
     10 C         138.7861  139.4277  163.3432 C.2     1  UNL1        0.2491
     11 O         137.7435  140.4808  163.5758 O.2     1  UNL1       -0.2699
     12 C         141.5871  137.6373  164.6574 C.3     1  UNL1        0.0233
     13 C         140.1758  137.4084  164.2041 C.3     1  UNL1        0.0938
     14 C         142.0958  140.3238  157.3856 C.ar    1  UNL1       -0.0024
     15 C         141.2755  141.5797  157.3906 C.ar    1  UNL1       -0.0026
     16 C         141.8031  142.8228  156.7377 C.ar    1  UNL1        0.0010
     17 C         143.1511  142.8101  156.0798 C.ar    1  UNL1        0.0147
     18 C         143.9714  141.5543  156.0748 C.ar    1  UNL1        0.0500
     19 C         143.4438  140.3112  156.7277 C.ar    1  UNL1        0.0120
     20 N         145.3194  141.5416  155.4169 N.am    1  UNL1       -0.2839
     21 C         146.5175  142.0659  156.1516 C.2     1  UNL1        0.2256
     22 O         146.3676  142.6028  157.5442 O.2     1  UNL1       -0.2748
     23 H         145.4178  141.1892  154.5029 H       1  UNL1        0.1549
     24 C         147.8654  142.0532  155.4937 C.3     1  UNL1        0.0768
     25 C         149.3385  141.7769  155.5554 C.3     1  UNL1        0.0096
     26 C         148.7271  142.3075  154.2925 C.3     1  UNL1        0.0096
     27 N         141.7361  137.7510  157.3652 N.3     1  UNL1       -0.2644
     28 C         142.8331  136.8242  157.7984 C.3     1  UNL1        0.0901
     29 C         143.0009  135.4943  157.1251 C.3     1  UNL1        0.0897
     30 N         142.0718  135.0913  156.0186 N.3     1  UNL1       -0.2702
     31 C         140.9748  136.0180  155.5855 C.3     1  UNL1        0.0897
     32 C         140.8069  137.3479  156.2587 C.3     1  UNL1        0.0901
     33 C         142.2397  133.7614  155.3453 C.3     1  UNL1        0.0748
     34 C         142.3686  132.5145  156.1692 C.3     1  UNL1        0.0494
     35 C         143.5589  131.6190  155.9931 C.3     1  UNL1        0.1437
     36 O         144.9177  132.0836  156.4267 O.3     1  UNL1       -0.3511
     37 C         145.1910  132.3526  157.8768 C.3     1  UNL1        0.1741
@<TRIPOS>BOND
     1    12    13    1
     2    13     8    1
     3     8     9    1
     4     8    10   am
     5    10    11    2
     6    10     2    1
     7     2     3   ar
     8     3     4   ar
     9     4     5   ar
    10     5     1    1
    11     1    14    1
    12    14    15   ar
    13    15    16   ar
    14    16    17   ar
    15    17    18   ar
    16    18    20    1
    17    20    21   am
    18    21    22    2
    19    21    24    1
    20    24    25    1
    21    25    26    1
    22    18    19   ar
    23     1    27    1
    24    27    28    1
    25    28    29    1
    26    29    30    1
    27    30    33    1
    28    33    34    1
    29    34    35    1
    30    35    36    1
    31    36    37    1
    32    30    31    1
    33    31    32    1
    34     5     6   ar
    35     6     7   ar
    36     7     2   ar
    37    19    14   ar
    38    32    27    1
    39    26    24    1
    40    20    23    1
@<TRIPOS>MOLECULE
*****
 37 40 0 0 0
SMALL
GASTEIGER

@<TRIPOS>ATOM
      1 C         141.6010  139.0470  158.4317 C.3     1  UNL1        0.1031
      2 C         139.9792  138.6205  162.6076 C.ar    1  UNL1        0.0536
      3 C         139.1062  138.3085  161.4284 C.ar    1  UNL1        0.0042
      4 C         139.6468  138.4507  160.0365 C.ar    1  UNL1       -0.0025
      5 C         141.0604  138.9049  159.8237 C.ar    1  UNL1       -0.0036
      6 C         141.9334  139.2169  161.0028 C.ar    1  UNL1       -0.0025
      7 C         141.3928  139.0747  162.3948 C.ar    1  UNL1        0.0042
      8 N         138.7292  139.6290  164.6497 N.am    1  UNL1       -0.2743
      9 C         138.1886  139.4868  166.0417 C.3     1  UNL1        0.1152
     10 C         139.4386  138.4784  163.9995 C.2     1  UNL1        0.2491
     11 O         139.6074  137.1856  164.7413 O.2     1  UNL1       -0.2699
     12 C         137.3067  141.1796  163.1259 C.3     1  UNL1        0.0233
     13 C         138.5604  140.9218  163.9080 C.3     1  UNL1        0.0938
     14 C         142.1926  140.3515  157.9865 C.ar    1  UNL1       -0.0024
     15 C         141.3218  141.5668  157.8633 C.ar    1  UNL1       -0.0026
     16 C         141.9134  142.8713  157.4180 C.ar    1  UNL1        0.0010
     17 C         143.3756  142.9606  157.0960 C.ar    1  UNL1        0.0147
     18 C         144.2464  141.7455  157.2191 C.ar    1  UNL1        0.0500
     19 C         143.6549  140.4409  157.6644 C.ar    1  UNL1        0.0120
     20 N         145.7087  141.8349  156.8971 N.am    1  UNL1       -0.2839
     21 C         146.1702  141.7399  155.4730 C.2     1  UNL1        0.2256
     22 O         145.1694  141.5556  154.3710 O.2     1  UNL1       -0.2748
     23 H         146.3655  141.9559  157.6204 H       1  UNL1        0.1549
     24 C         147.6325  141.8293  155.1510 C.3     1  UNL1        0.0768
     25 C         148.7317  142.1000  154.1669 C.3     1  UNL1        0.0096
     26 C         149.0659  141.7134  155.5772 C.3     1  UNL1        0.0096
     27 N         141.5501  137.8847  157.4850 N.3     1  UNL1       -0.2644
     28 C         140.4083  137.7517  156.5214 C.3     1  UNL1        0.0901
     29 C         140.3574  136.5893  155.5746 C.3     1  UNL1        0.0897
     30 N         141.4482  135.5599  155.5915 N.3     1  UNL1       -0.2702
     31 C         142.5901  135.6929  156.5552 C.3     1  UNL1        0.0897
     32 C         142.6410  136.8552  157.5019 C.3     1  UNL1        0.0901
     33 C         141.3973  134.3975  154.6448 C.3     1  UNL1        0.0748
     34 C         142.4151  133.3005  154.7487 C.3     1  UNL1        0.0494
     35 C         142.1526  132.1149  155.6294 C.3     1  UNL1        0.1437
     36 O         142.6159  132.1232  157.0560 O.3     1  UNL1       -0.3511
     37 C         144.0252  131.7325  157.3892 C.3     1  UNL1        0.1741
@<TRIPOS>BOND
     1    12    13    1
     2    13     8    1
     3     8     9    1
     4     8    10   am
     5    10    11    2
     6    10     2    1
     7     2     3   ar
     8     3     4   ar
     9     4     5   ar
    10     5     1    1
    11     1    14    1
    12    14    15   ar
    13    15    16   ar
    14    16    17   ar
    15    17    18   ar
    16    18    20    1
    17    20    21   am
    18    21    22    2
    19    21    24    1
    20    24    25    1
    21    25    26    1
    22    18    19   ar
    23     1    27    1
    24    27    28    1
    25    28    29    1
    26    29    30    1
    27    30    33    1
    28    33    34    1
    29    34    35    1
    30    35    36    1
    31    36    37    1
    32    30    31    1
    33    31    32    1
    34     5     6   ar
    35     6     7   ar
    36     7     2   ar
    37    19    14   ar
    38    32    27    1
    39    26    24    1
    40    20    23    1
@<TRIPOS>MOLECULE
*****
 37 40 0 0 0
SMALL
GASTEIGER

@<TRIPOS>ATOM
      1 C         140.5281  138.8004  158.0506 C.3     1  UNL1        0.1031
      2 C         140.8105  138.7528  162.5415 C.ar    1  UNL1        0.0536
      3 C         139.6793  138.0477  161.8536 C.ar    1  UNL1        0.0042
      4 C         139.5852  138.0636  160.3566 C.ar    1  UNL1       -0.0025
      5 C         140.6222  138.7845  159.5475 C.ar    1  UNL1       -0.0036
      6 C         141.7534  139.4896  160.2354 C.ar    1  UNL1       -0.0025
      7 C         141.8475  139.4738  161.7324 C.ar    1  UNL1        0.0042
      8 N         140.2390  139.8136  164.8432 N.am    1  UNL1       -0.2743
      9 C         140.3331  139.7978  166.3402 C.3     1  UNL1        0.1152
     10 C         140.9046  138.7369  164.0384 C.2     1  UNL1        0.2491
     11 O         141.6642  137.6444  164.7306 O.2     1  UNL1       -0.2699
     12 C         137.9877  140.8163  164.0207 C.3     1  UNL1        0.0233
     13 C         139.4793  140.9063  164.1510 C.3     1  UNL1        0.0938
     14 C         141.5996  138.1524  157.2248 C.ar    1  UNL1       -0.0024
     15 C         142.7111  138.9821  156.6535 C.ar    1  UNL1       -0.0026
     16 C         143.7826  138.3342  155.8277 C.ar    1  UNL1        0.0010
     17 C         143.7428  136.8564  155.5733 C.ar    1  UNL1        0.0147
     18 C         142.6314  136.0267  156.1445 C.ar    1  UNL1        0.0500
     19 C         141.5598  136.6747  156.9703 C.ar    1  UNL1        0.0120
     20 N         142.5916  134.5490  155.8901 N.am    1  UNL1       -0.2839
     21 C         143.0988  133.5949  156.9304 C.2     1  UNL1        0.2256
     22 O         143.6458  134.1184  158.2253 O.2     1  UNL1       -0.2748
     23 H         142.2326  134.2053  155.0402 H       1  UNL1        0.1549
     24 C         143.0590  132.1171  156.6759 C.3     1  UNL1        0.0768
     25 C         143.2727  130.7108  157.1519 C.3     1  UNL1        0.0096
     26 C         142.7762  130.9640  155.7592 C.3     1  UNL1        0.0096
     27 N         139.3625  139.4642  157.3794 N.3     1  UNL1       -0.2644
     28 C         139.0212  139.1235  155.9590 C.3     1  UNL1        0.0901
     29 C         137.8555  139.7875  155.2878 C.3     1  UNL1        0.0897
     30 N         137.0312  140.7920  156.0370 N.3     1  UNL1       -0.2702
     31 C         137.3724  141.1327  157.4573 C.3     1  UNL1        0.0897
     32 C         138.5381  140.4688  158.1285 C.3     1  UNL1        0.0901
     33 C         135.8655  141.4559  155.3658 C.3     1  UNL1        0.0748
     34 C         134.7597  140.6238  154.7870 C.3     1  UNL1        0.0494
     35 C         134.0206  139.6497  155.6557 C.3     1  UNL1        0.1437
     36 O         134.0844  139.7780  157.1488 O.3     1  UNL1       -0.3511
     37 C         133.1603  138.9703  158.0112 C.3     1  UNL1        0.1741
@<TRIPOS>BOND
     1    12    13    1
     2    13     8    1
     3     8     9    1
     4     8    10   am
     5    10    11    2
     6    10     2    1
     7     2     3   ar
     8     3     4   ar
     9     4     5   ar
    10     5     1    1
    11     1    14    1
    12    14    15   ar
    13    15    16   ar
    14    16    17   ar
    15    17    18   ar
    16    18    20    1
    17    20    21   am
    18    21    22    2
    19    21    24    1
    20    24    25    1
    21    25    26    1
    22    18    19   ar
    23     1    27    1
    24    27    28    1
    25    28    29    1
    26    29    30    1
    27    30    33    1
    28    33    34    1
    29    34    35    1
    30    35    36    1
    31    36    37    1
    32    30    31    1
    33    31    32    1
    34     5     6   ar
    35     6     7   ar
    36     7     2   ar
    37    19    14   ar
    38    32    27    1
    39    26    24    1
    40    20    23    1
@<TRIPOS>MOLECULE
*****
 37 40 0 0 0
SMALL
GASTEIGER

@<TRIPOS>ATOM
      1 C         140.0312  139.5124  158.7184 C.3     1  UNL1        0.1031
      2 C         139.2882  143.4321  156.6364 C.ar    1  UNL1        0.0536
      3 C         138.2958  142.9129  157.6342 C.ar    1  UNL1        0.0042
      4 C         138.5435  141.6063  158.3282 C.ar    1  UNL1       -0.0025
      5 C         139.7835  140.8190  158.0244 C.ar    1  UNL1       -0.0036
      6 C         140.7759  141.3382  157.0266 C.ar    1  UNL1       -0.0025
      7 C         140.5282  142.6447  156.3326 C.ar    1  UNL1        0.0042
      8 N         139.6291  146.0037  156.4930 N.am    1  UNL1       -0.2743
      9 C         139.3814  147.3102  155.7990 C.3     1  UNL1        0.1152
     10 C         139.0405  144.7386  155.9424 C.2     1  UNL1        0.2491
     11 O         138.2043  144.7801  154.6979 O.2     1  UNL1       -0.2699
     12 C         141.9600  145.8897  157.6348 C.3     1  UNL1        0.0233
     13 C         140.4654  145.9622  157.7376 C.3     1  UNL1        0.0938
     14 C         139.5902  139.3226  160.1394 C.ar    1  UNL1       -0.0024
     15 C         138.1687  138.9498  160.4403 C.ar    1  UNL1       -0.0026
     16 C         137.7278  138.7600  161.8613 C.ar    1  UNL1        0.0010
     17 C         138.7083  138.9430  162.9817 C.ar    1  UNL1        0.0147
     18 C         140.1297  139.3157  162.6809 C.ar    1  UNL1        0.0500
     19 C         140.5707  139.5056  161.2598 C.ar    1  UNL1        0.0120
     20 N         141.1103  139.4987  163.8012 N.am    1  UNL1       -0.2839
     21 C         141.6042  138.3077  164.5676 C.2     1  UNL1        0.2256
     22 O         141.1177  136.9336  164.2137 O.2     1  UNL1       -0.2748
     23 H         141.4296  140.4005  164.0335 H       1  UNL1        0.1549
     24 C         142.5847  138.4906  165.6879 C.3     1  UNL1        0.0768
     25 C         143.8938  138.1514  166.3369 C.3     1  UNL1        0.0096
     26 C         142.9739  139.1468  166.9794 C.3     1  UNL1        0.0096
     27 N         140.7198  138.3957  157.9913 N.3     1  UNL1       -0.2644
     28 C         142.1187  138.0062  158.3671 C.3     1  UNL1        0.0901
     29 C         142.8073  136.8894  157.6400 C.3     1  UNL1        0.0897
     30 N         142.0970  136.1622  156.5370 N.3     1  UNL1       -0.2702
     31 C         140.6980  136.5517  156.1612 C.3     1  UNL1        0.0897
     32 C         140.0094  137.6684  156.8883 C.3     1  UNL1        0.0901
     33 C         142.7856  135.0454  155.8099 C.3     1  UNL1        0.0748
     34 C         142.2191  133.6573  155.8582 C.3     1  UNL1        0.0494
     35 C         143.0643  132.5190  156.3479 C.3     1  UNL1        0.1437
     36 O         144.5286  132.7259  156.5989 O.3     1  UNL1       -0.3511
     37 C         145.1297  132.3168  157.9108 C.3     1  UNL1        0.1741
@<TRIPOS>BOND
     1    12    13    1
     2    13     8    1
     3     8     9    1
     4     8    10   am
     5    10    11    2
     6    10     2    1
     7     2     3   ar
     8     3     4   ar
     9     4     5   ar
    10     5     1    1
    11     1    14    1
    12    14    15   ar
    13    15    16   ar
    14    16    17   ar
    15    17    18   ar
    16    18    20    1
    17    20    21   am
    18    21    22    2
    19    21    24    1
    20    24    25    1
    21    25    26    1
    22    18    19   ar
    23     1    27    1
    24    27    28    1
    25    28    29    1
    26    29    30    1
    27    30    33    1
    28    33    34    1
    29    34    35    1
    30    35    36    1
    31    36    37    1
    32    30    31    1
    33    31    32    1
    34     5     6   ar
    35     6     7   ar
    36     7     2   ar
    37    19    14   ar
    38    32    27    1
    39    26    24    1
    40    20    23    1
@<TRIPOS>MOLECULE
*****
 37 40 0 0 0
SMALL
GASTEIGER

@<TRIPOS>ATOM
      1 C         140.5286  139.4118  159.0443 C.3     1  UNL1        0.1031
      2 C         139.9454  143.5998  157.5046 C.ar    1  UNL1        0.0536
      3 C         139.0316  143.0555  158.5622 C.ar    1  UNL1        0.0042
      4 C         139.2260  141.6595  159.0755 C.ar    1  UNL1       -0.0025
      5 C         140.3342  140.8078  158.5310 C.ar    1  UNL1       -0.0036
      6 C         141.2480  141.3521  157.4734 C.ar    1  UNL1       -0.0025
      7 C         141.0536  142.7481  156.9602 C.ar    1  UNL1        0.0042
      8 N         138.8842  145.2399  155.7918 N.am    1  UNL1       -0.2743
      9 C         138.6898  146.6359  155.2785 C.3     1  UNL1        0.1152
     10 C         139.7510  144.9958  156.9914 C.2     1  UNL1        0.2491
     11 O         140.4234  146.1476  157.6777 O.2     1  UNL1       -0.2699
     12 C         136.8310  143.6717  155.5177 C.3     1  UNL1        0.0233
     13 C         138.2118  144.0880  155.1053 C.3     1  UNL1        0.0938
     14 C         140.2761  139.1023  160.4901 C.ar    1  UNL1       -0.0024
     15 C         139.1453  138.1957  160.8766 C.ar    1  UNL1       -0.0026
     16 C         138.8927  137.8862  162.3224 C.ar    1  UNL1        0.0010
     17 C         139.7710  138.4832  163.3818 C.ar    1  UNL1        0.0147
     18 C         140.9018  139.3898  162.9953 C.ar    1  UNL1        0.0500
     19 C         141.1544  139.6993  161.5494 C.ar    1  UNL1        0.0120
     20 N         141.7801  139.9868  164.0546 N.am    1  UNL1       -0.2839
     21 C         141.3452  141.2266  164.7784 C.2     1  UNL1        0.2256
     22 O         140.0320  141.8693  164.4429 O.2     1  UNL1       -0.2748
     23 H         142.6419  139.5650  164.2748 H       1  UNL1        0.1549
     24 C         142.2235  141.8236  165.8377 C.3     1  UNL1        0.0768
     25 C         142.4714  142.1712  167.2757 C.3     1  UNL1        0.0096
     26 C         143.4967  142.5101  166.2346 C.3     1  UNL1        0.0096
     27 N         140.9756  138.3253  158.1117 N.3     1  UNL1       -0.2644
     28 C         140.0393  137.8069  157.0607 C.3     1  UNL1        0.0901
     29 C         140.4863  136.7203  156.1281 C.3     1  UNL1        0.0897
     30 N         141.8695  136.1522  156.2465 N.3     1  UNL1       -0.2702
     31 C         142.8057  136.6706  157.2976 C.3     1  UNL1        0.0897
     32 C         142.3588  137.7571  158.2302 C.3     1  UNL1        0.0901
     33 C         142.3165  135.0657  155.3139 C.3     1  UNL1        0.0748
     34 C         141.4009  133.9182  155.0057 C.3     1  UNL1        0.0494
     35 C         141.6957  132.5546  155.5568 C.3     1  UNL1        0.1437
     36 O         142.4027  132.4140  156.8722 O.3     1  UNL1       -0.3511
     37 C         143.5959  131.5127  156.9898 C.3     1  UNL1        0.1741
@<TRIPOS>BOND
     1    12    13    1
     2    13     8    1
     3     8     9    1
     4     8    10   am
     5    10    11    2
     6    10     2    1
     7     2     3   ar
     8     3     4   ar
     9     4     5   ar
    10     5     1    1
    11     1    14    1
    12    14    15   ar
    13    15    16   ar
    14    16    17   ar
    15    17    18   ar
    16    18    20    1
    17    20    21   am
    18    21    22    2
    19    21    24    1
    20    24    25    1
    21    25    26    1
    22    18    19   ar
    23     1    27    1
    24    27    28    1
    25    28    29    1
    26    29    30    1
    27    30    33    1
    28    33    34    1
    29    34    35    1
    30    35    36    1
    31    36    37    1
    32    30    31    1
    33    31    32    1
    34     5     6   ar
    35     6     7   ar
    36     7     2   ar
    37    19    14   ar
    38    32    27    1
    39    26    24    1
    40    20    23    1
