@<TRIPOS>MOLECULE
*****
 29 32 0 0 0
SMALL
GASTEIGER

@<TRIPOS>ATOM
      1 C         139.4602  140.8832  170.3339 C.3     1  UNL1        0.0518
      2 C         139.5989  140.6733  168.8550 C.ar    1  UNL1        0.0567
      3 N         138.9162  139.5119  168.1952 N.ar    1  UNL1       -0.2484
      4 C         139.0549  139.3020  166.7164 C.ar    1  UNL1        0.0995
      5 C         138.5025  138.2551  165.7952 C.ar    1  UNL1        0.0955
      6 N         138.9823  138.5594  164.4070 N.ar    1  UNL1       -0.3194
      7 C         139.8313  139.7944  164.4702 C.ar    1  UNL1        0.0777
      8 C         139.8762  140.2534  165.8976 C.ar    1  UNL1        0.0361
      9 C         140.5588  141.4147  166.5575 C.ar    1  UNL1        0.0022
     10 C         140.4201  141.6246  168.0363 C.ar    1  UNL1        0.0071
     11 C         141.3800  142.3660  165.7387 C.ar    1  UNL1        0.0105
     12 C         142.8583  142.1530  165.5999 C.ar    1  UNL1        0.0017
     13 C         143.6795  143.1044  164.7811 C.ar    1  UNL1        0.0114
     14 C         143.0225  144.2688  164.1011 C.ar    1  UNL1        0.0585
     15 CL        143.8437  145.2202  163.2823 Cl      1  UNL1       -0.0822
     16 C         141.5441  144.4819  164.2399 C.ar    1  UNL1        0.0228
     17 C         140.7229  143.5305  165.0587 C.ar    1  UNL1        0.0585
     18 CL        139.2446  143.7435  165.1976 Cl      1  UNL1       -0.0822
     19 C         141.1027  142.7859  168.6962 C.3     1  UNL1        0.0934
     20 N         142.4960  142.6322  169.2301 N.3     1  UNL1       -0.3174
     21 H         142.4910  141.9725  170.0081 H       1  UNL1        0.1192
     22 H         142.8378  143.5371  169.5538 H       1  UNL1        0.1192
     23 C         138.6683  137.7678  163.1722 C.3     1  UNL1        0.1329
     24 C         138.7603  138.4155  161.8224 C.ar    1  UNL1        0.0004
     25 C         139.9665  138.1858  160.9608 C.ar    1  UNL1       -0.0024
     26 C         140.0585  138.8335  159.6110 C.ar    1  UNL1       -0.0003
     27 C         138.9442  139.7110  159.1227 C.ar    1  UNL1       -0.0000
     28 C         137.7379  139.9407  159.9844 C.ar    1  UNL1       -0.0003
     29 C         137.6460  139.2930  161.3342 C.ar    1  UNL1       -0.0024
@<TRIPOS>BOND
     1     1     2    1
     2     2     3   ar
     3     3     4   ar
     4     4     5   ar
     5     5     6   ar
     6     6    23    1
     7    23    24    1
     8    24    25   ar
     9    25    26   ar
    10    26    27   ar
    11    27    28   ar
    12    28    29   ar
    13     6     7   ar
    14     7     8   ar
    15     8     9   ar
    16     9    11    1
    17    11    12   ar
    18    12    13   ar
    19    13    14   ar
    20    14    15    1
    21    14    16   ar
    22    16    17   ar
    23    17    18    1
    24     9    10   ar
    25    10    19    1
    26    19    20    1
    27    10     2   ar
    28     8     4   ar
    29    17    11   ar
    30    29    24   ar
    31    20    21    1
    32    20    22    1
@<TRIPOS>MOLECULE
*****
 29 32 0 0 0
SMALL
GASTEIGER

@<TRIPOS>ATOM
      1 C         137.7902  139.4985  170.1497 C.3     1  UNL1        0.0518
      2 C         138.7372  139.9079  169.0607 C.ar    1  UNL1        0.0567
      3 N         139.9246  140.7661  169.3829 N.ar    1  UNL1       -0.2484
      4 C         140.8716  141.1754  168.2940 C.ar    1  UNL1        0.0995
      5 C         142.1178  142.0101  168.3089 C.ar    1  UNL1        0.0955
      6 N         142.6476  142.0771  166.9072 N.ar    1  UNL1       -0.3194
      7 C         141.7289  141.2838  166.0260 C.ar    1  UNL1        0.0777
      8 C         140.6312  140.7266  166.8830 C.ar    1  UNL1        0.0361
      9 C         139.4438  139.8684  166.5610 C.ar    1  UNL1        0.0022
     10 C         138.4969  139.4591  167.6499 C.ar    1  UNL1        0.0071
     11 C         139.2034  139.4195  165.1500 C.ar    1  UNL1        0.0105
     12 C         139.7199  138.0893  164.6879 C.ar    1  UNL1        0.0017
     13 C         139.4795  137.6405  163.2769 C.ar    1  UNL1        0.0114
     14 C         138.7226  138.5219  162.3281 C.ar    1  UNL1        0.0585
     15 CL        138.4822  138.0731  160.9172 Cl      1  UNL1       -0.0822
     16 C         138.2061  139.8522  162.7903 C.ar    1  UNL1        0.0228
     17 C         138.4465  140.3010  164.2012 C.ar    1  UNL1        0.0585
     18 CL        137.9301  141.6313  164.6635 Cl      1  UNL1       -0.0822
     19 C         137.3095  138.6009  167.3277 C.3     1  UNL1        0.0934
     20 N         137.4475  137.1074  167.3060 N.3     1  UNL1       -0.3174
     21 H         138.0674  136.8343  166.5435 H       1  UNL1        0.1192
     22 H         136.5303  136.6832  167.1670 H       1  UNL1        0.1192
     23 C         143.8799  142.8089  166.4645 C.3     1  UNL1        0.1329
     24 C         144.1655  142.9804  165.0020 C.ar    1  UNL1        0.0004
     25 C         143.7248  144.2265  164.2928 C.ar    1  UNL1       -0.0024
     26 C         144.0104  144.3981  162.8303 C.ar    1  UNL1       -0.0003
     27 C         144.7368  143.3235  162.0768 C.ar    1  UNL1       -0.0000
     28 C         145.1775  142.0773  162.7861 C.ar    1  UNL1       -0.0003
     29 C         144.8919  141.9058  164.2486 C.ar    1  UNL1       -0.0024
@<TRIPOS>BOND
     1     1     2    1
     2     2     3   ar
     3     3     4   ar
     4     4     5   ar
     5     5     6   ar
     6     6    23    1
     7    23    24    1
     8    24    25   ar
     9    25    26   ar
    10    26    27   ar
    11    27    28   ar
    12    28    29   ar
    13     6     7   ar
    14     7     8   ar
    15     8     9   ar
    16     9    11    1
    17    11    12   ar
    18    12    13   ar
    19    13    14   ar
    20    14    15    1
    21    14    16   ar
    22    16    17   ar
    23    17    18    1
    24     9    10   ar
    25    10    19    1
    26    19    20    1
    27    10     2   ar
    28     8     4   ar
    29    17    11   ar
    30    29    24   ar
    31    20    21    1
    32    20    22    1
@<TRIPOS>MOLECULE
*****
 29 32 0 0 0
SMALL
GASTEIGER

@<TRIPOS>ATOM
      1 C         139.4111  144.7305  156.2499 C.3     1  UNL1        0.0518
      2 C         139.4823  143.9064  157.5013 C.ar    1  UNL1        0.0567
      3 N         138.6749  142.6475  157.6173 N.ar    1  UNL1       -0.2484
      4 C         138.7462  141.8236  158.8687 C.ar    1  UNL1        0.0995
      5 C         138.0704  140.5455  159.2687 C.ar    1  UNL1        0.0955
      6 N         138.5314  140.1905  160.6512 N.ar    1  UNL1       -0.3194
      7 C         139.4920  141.2491  161.1057 C.ar    1  UNL1        0.0777
      8 C         139.6247  142.2584  160.0040 C.ar    1  UNL1        0.0361
      9 C         140.4321  143.5173  159.8880 C.ar    1  UNL1        0.0022
     10 C         140.3609  144.3412  158.6366 C.ar    1  UNL1        0.0071
     11 C         141.3107  143.9521  161.0233 C.ar    1  UNL1        0.0105
     12 C         142.7377  143.4939  161.0855 C.ar    1  UNL1        0.0017
     13 C         143.6162  143.9289  162.2208 C.ar    1  UNL1        0.0114
     14 C         143.0678  144.8219  163.2940 C.ar    1  UNL1        0.0585
     15 CL        143.9464  145.2568  164.4293 Cl      1  UNL1       -0.0822
     16 C         141.6408  145.2801  163.2319 C.ar    1  UNL1        0.0228
     17 C         140.7623  144.8452  162.0966 C.ar    1  UNL1        0.0585
     18 CL        139.3353  145.3033  162.0343 Cl      1  UNL1       -0.0822
     19 C         141.1683  145.6001  158.5206 C.3     1  UNL1        0.0934
     20 N         142.5461  145.5555  157.9293 N.3     1  UNL1       -0.3174
     21 H         143.1600  145.0144  158.5381 H       1  UNL1        0.1192
     22 H         142.9080  146.5048  157.8385 H       1  UNL1        0.1192
     23 C         138.1064  138.9880  161.4407 C.3     1  UNL1        0.1329
     24 C         138.3317  138.9460  162.9231 C.ar    1  UNL1        0.0004
     25 C         138.9152  137.7190  163.5586 C.ar    1  UNL1       -0.0024
     26 C         139.1405  137.6771  165.0410 C.ar    1  UNL1       -0.0003
     27 C         138.7824  138.8622  165.8879 C.ar    1  UNL1       -0.0000
     28 C         138.1989  140.0893  165.2523 C.ar    1  UNL1       -0.0003
     29 C         137.9736  140.1312  163.7699 C.ar    1  UNL1       -0.0024
@<TRIPOS>BOND
     1     1     2    1
     2     2     3   ar
     3     3     4   ar
     4     4     5   ar
     5     5     6   ar
     6     6    23    1
     7    23    24    1
     8    24    25   ar
     9    25    26   ar
    10    26    27   ar
    11    27    28   ar
    12    28    29   ar
    13     6     7   ar
    14     7     8   ar
    15     8     9   ar
    16     9    11    1
    17    11    12   ar
    18    12    13   ar
    19    13    14   ar
    20    14    15    1
    21    14    16   ar
    22    16    17   ar
    23    17    18    1
    24     9    10   ar
    25    10    19    1
    26    19    20    1
    27    10     2   ar
    28     8     4   ar
    29    17    11   ar
    30    29    24   ar
    31    20    21    1
    32    20    22    1
@<TRIPOS>MOLECULE
*****
 29 32 0 0 0
SMALL
GASTEIGER

@<TRIPOS>ATOM
      1 C         137.0358  137.9985  167.7284 C.3     1  UNL1        0.0518
      2 C         138.0427  138.9403  167.1374 C.ar    1  UNL1        0.0567
      3 N         138.1318  139.1057  165.6492 N.ar    1  UNL1       -0.2484
      4 C         139.1386  140.0476  165.0583 C.ar    1  UNL1        0.0995
      5 C         139.4568  140.4156  163.6394 C.ar    1  UNL1        0.0955
      6 N         140.5712  141.4195  163.6597 N.ar    1  UNL1       -0.3194
      7 C         140.9417  141.6719  165.0912 C.ar    1  UNL1        0.0777
      8 C         140.0563  140.8240  165.9555 C.ar    1  UNL1        0.0361
      9 C         139.9672  140.6585  167.4437 C.ar    1  UNL1        0.0022
     10 C         138.9603  139.7167  168.0346 C.ar    1  UNL1        0.0071
     11 C         140.8848  141.4349  168.3410 C.ar    1  UNL1        0.0105
     12 C         140.4508  142.7612  168.8911 C.ar    1  UNL1        0.0017
     13 C         141.3686  143.5375  169.7884 C.ar    1  UNL1        0.0114
     14 C         142.7203  142.9876  170.1355 C.ar    1  UNL1        0.0585
     15 CL        143.6380  143.7640  171.0327 Cl      1  UNL1       -0.0822
     16 C         143.1543  141.6613  169.5853 C.ar    1  UNL1        0.0228
     17 C         142.2366  140.8850  168.6881 C.ar    1  UNL1        0.0585
     18 CL        142.6705  139.5587  168.1379 Cl      1  UNL1       -0.0822
     19 C         138.8712  139.5513  169.5229 C.3     1  UNL1        0.0934
     20 N         138.1475  140.5730  170.3489 N.3     1  UNL1       -0.3174
     21 H         138.6471  141.4612  170.3055 H       1  UNL1        0.1192
     22 H         138.1009  140.2561  171.3174 H       1  UNL1        0.1192
     23 C         141.2040  142.0588  162.4593 C.3     1  UNL1        0.1329
     24 C         140.7663  143.4241  162.0185 C.ar    1  UNL1        0.0004
     25 C         141.3012  144.0083  160.7448 C.ar    1  UNL1       -0.0024
     26 C         140.8635  145.3736  160.3039 C.ar    1  UNL1       -0.0003
     27 C         139.8908  146.1547  161.1368 C.ar    1  UNL1       -0.0000
     28 C         139.3558  145.5704  162.4106 C.ar    1  UNL1       -0.0003
     29 C         139.7935  144.2051  162.8515 C.ar    1  UNL1       -0.0024
@<TRIPOS>BOND
     1     1     2    1
     2     2     3   ar
     3     3     4   ar
     4     4     5   ar
     5     5     6   ar
     6     6    23    1
     7    23    24    1
     8    24    25   ar
     9    25    26   ar
    10    26    27   ar
    11    27    28   ar
    12    28    29   ar
    13     6     7   ar
    14     7     8   ar
    15     8     9   ar
    16     9    11    1
    17    11    12   ar
    18    12    13   ar
    19    13    14   ar
    20    14    15    1
    21    14    16   ar
    22    16    17   ar
    23    17    18    1
    24     9    10   ar
    25    10    19    1
    26    19    20    1
    27    10     2   ar
    28     8     4   ar
    29    17    11   ar
    30    29    24   ar
    31    20    21    1
    32    20    22    1
@<TRIPOS>MOLECULE
*****
 29 32 0 0 0
SMALL
GASTEIGER

@<TRIPOS>ATOM
      1 C         137.1977  138.0323  167.5211 C.3     1  UNL1        0.0518
      2 C         138.0806  139.1223  166.9895 C.ar    1  UNL1        0.0567
      3 N         138.0300  139.4860  165.5351 N.ar    1  UNL1       -0.2484
      4 C         138.9129  140.5760  165.0035 C.ar    1  UNL1        0.0995
      5 C         139.0815  141.1497  163.6279 C.ar    1  UNL1        0.0955
      6 N         140.1190  142.2306  163.7005 N.ar    1  UNL1       -0.3194
      7 C         140.5916  142.3248  165.1209 C.ar    1  UNL1        0.0777
      8 C         139.8462  141.3022  165.9263 C.ar    1  UNL1        0.0361
      9 C         139.8966  140.9385  167.3806 C.ar    1  UNL1        0.0022
     10 C         139.0138  139.8486  167.9122 C.ar    1  UNL1        0.0071
     11 C         140.8300  141.6648  168.3034 C.ar    1  UNL1        0.0105
     12 C         140.3626  142.8908  169.0303 C.ar    1  UNL1        0.0017
     13 C         141.2960  143.6170  169.9531 C.ar    1  UNL1        0.0114
     14 C         142.6967  143.1172  170.1490 C.ar    1  UNL1        0.0585
     15 CL        143.6299  143.8434  171.0717 Cl      1  UNL1       -0.0822
     16 C         143.1640  141.8911  169.4220 C.ar    1  UNL1        0.0228
     17 C         142.2307  141.1649  168.4993 C.ar    1  UNL1        0.0585
     18 CL        142.6979  139.9389  167.7723 Cl      1  UNL1       -0.0822
     19 C         139.0643  139.4849  169.3666 C.3     1  UNL1        0.0934
     20 N         138.0845  140.0926  170.3261 N.3     1  UNL1       -0.3174
     21 H         138.2538  141.0961  170.3950 H       1  UNL1        0.1192
     22 H         138.1983  139.6647  171.2449 H       1  UNL1        0.1192
     23 C         140.5996  143.0699  162.5539 C.3     1  UNL1        0.1329
     24 C         142.0061  142.9222  162.0541 C.ar    1  UNL1        0.0004
     25 C         143.1133  143.7133  162.6853 C.ar    1  UNL1       -0.0024
     26 C         144.5198  143.5657  162.1855 C.ar    1  UNL1       -0.0003
     27 C         144.8193  142.6269  161.0546 C.ar    1  UNL1       -0.0000
     28 C         143.7121  141.8357  160.4235 C.ar    1  UNL1       -0.0003
     29 C         142.3055  141.9834  160.9232 C.ar    1  UNL1       -0.0024
@<TRIPOS>BOND
     1     1     2    1
     2     2     3   ar
     3     3     4   ar
     4     4     5   ar
     5     5     6   ar
     6     6    23    1
     7    23    24    1
     8    24    25   ar
     9    25    26   ar
    10    26    27   ar
    11    27    28   ar
    12    28    29   ar
    13     6     7   ar
    14     7     8   ar
    15     8     9   ar
    16     9    11    1
    17    11    12   ar
    18    12    13   ar
    19    13    14   ar
    20    14    15    1
    21    14    16   ar
    22    16    17   ar
    23    17    18    1
    24     9    10   ar
    25    10    19    1
    26    19    20    1
    27    10     2   ar
    28     8     4   ar
    29    17    11   ar
    30    29    24   ar
    31    20    21    1
    32    20    22    1
@<TRIPOS>MOLECULE
*****
 29 32 0 0 0
SMALL
GASTEIGER

@<TRIPOS>ATOM
      1 C         136.5981  138.0873  168.4175 C.3     1  UNL1        0.0518
      2 C         137.7490  138.7753  167.7449 C.ar    1  UNL1        0.0567
      3 N         137.9801  138.5868  166.2748 N.ar    1  UNL1       -0.2484
      4 C         139.1309  139.2747  165.6023 C.ar    1  UNL1        0.0995
      5 C         139.6055  139.2781  164.1794 C.ar    1  UNL1        0.0955
      6 N         140.8186  140.1566  164.0975 N.ar    1  UNL1       -0.3194
      7 C         141.0936  140.6963  165.4697 C.ar    1  UNL1        0.0777
      8 C         140.0506  140.1512  166.3998 C.ar    1  UNL1        0.0361
      9 C         139.8194  140.3397  167.8698 C.ar    1  UNL1        0.0022
     10 C         138.6686  139.6518  168.5423 C.ar    1  UNL1        0.0071
     11 C         140.7391  141.2162  168.6673 C.ar    1  UNL1        0.0105
     12 C         140.3186  142.6090  169.0322 C.ar    1  UNL1        0.0017
     13 C         141.2383  143.4855  169.8297 C.ar    1  UNL1        0.0114
     14 C         142.5785  142.9691  170.2624 C.ar    1  UNL1        0.0585
     15 CL        143.4981  143.8455  171.0599 Cl      1  UNL1       -0.0822
     16 C         142.9990  141.5762  169.8975 C.ar    1  UNL1        0.0228
     17 C         142.0793  140.6998  169.1001 C.ar    1  UNL1        0.0585
     18 CL        142.4997  139.3069  168.7352 Cl      1  UNL1       -0.0822
     19 C         138.4375  139.8403  170.0124 C.3     1  UNL1        0.0934
     20 N         139.4818  139.4059  170.9976 N.3     1  UNL1       -0.3174
     21 H         139.5754  138.3906  170.9683 H       1  UNL1        0.1192
     22 H         139.2054  139.6949  171.9359 H       1  UNL1        0.1192
     23 C         141.6165  140.4450  162.8604 C.3     1  UNL1        0.1329
     24 C         143.0327  140.9254  162.9765 C.ar    1  UNL1        0.0004
     25 C         143.4556  142.1875  162.2849 C.ar    1  UNL1       -0.0024
     26 C         144.8718  142.6679  162.4009 C.ar    1  UNL1       -0.0003
     27 C         145.8652  141.8863  163.2086 C.ar    1  UNL1       -0.0000
     28 C         145.4422  140.6242  163.9002 C.ar    1  UNL1       -0.0003
     29 C         144.0260  140.1437  163.7842 C.ar    1  UNL1       -0.0024
@<TRIPOS>BOND
     1     1     2    1
     2     2     3   ar
     3     3     4   ar
     4     4     5   ar
     5     5     6   ar
     6     6    23    1
     7    23    24    1
     8    24    25   ar
     9    25    26   ar
    10    26    27   ar
    11    27    28   ar
    12    28    29   ar
    13     6     7   ar
    14     7     8   ar
    15     8     9   ar
    16     9    11    1
    17    11    12   ar
    18    12    13   ar
    19    13    14   ar
    20    14    15    1
    21    14    16   ar
    22    16    17   ar
    23    17    18    1
    24     9    10   ar
    25    10    19    1
    26    19    20    1
    27    10     2   ar
    28     8     4   ar
    29    17    11   ar
    30    29    24   ar
    31    20    21    1
    32    20    22    1
@<TRIPOS>MOLECULE
*****
 29 32 0 0 0
SMALL
GASTEIGER

@<TRIPOS>ATOM
      1 C         142.8452  137.6653  160.2450 C.3     1  UNL1        0.0518
      2 C         142.6733  138.5077  161.4743 C.ar    1  UNL1        0.0567
      3 N         143.0272  137.9500  162.8211 N.ar    1  UNL1       -0.2484
      4 C         142.8554  138.7924  164.0503 C.ar    1  UNL1        0.0995
      5 C         143.1178  138.5160  165.5011 C.ar    1  UNL1        0.0955
      6 N         142.7543  139.7452  166.2801 N.ar    1  UNL1       -0.3194
      7 C         142.2672  140.7812  165.3108 C.ar    1  UNL1        0.0777
      8 C         142.3297  140.1923  163.9327 C.ar    1  UNL1        0.0361
      9 C         141.9759  140.7499  162.5859 C.ar    1  UNL1        0.0022
     10 C         142.1477  139.9076  161.3567 C.ar    1  UNL1        0.0071
     11 C         141.4503  142.1499  162.4683 C.ar    1  UNL1        0.0105
     12 C         139.9756  142.4077  162.5624 C.ar    1  UNL1        0.0017
     13 C         139.4500  143.8077  162.4448 C.ar    1  UNL1        0.0114
     14 C         140.3990  144.9499  162.2331 C.ar    1  UNL1        0.0585
     15 CL        139.8734  146.3497  162.1155 Cl      1  UNL1       -0.0822
     16 C         141.8738  144.6920  162.1390 C.ar    1  UNL1        0.0228
     17 C         142.3994  143.2921  162.2566 C.ar    1  UNL1        0.0585
     18 CL        143.8740  143.0342  162.1626 Cl      1  UNL1       -0.0822
     19 C         141.7939  140.4653  160.0099 C.3     1  UNL1        0.0934
     20 N         142.8254  141.2034  159.2093 N.3     1  UNL1       -0.3174
     21 H         143.0760  142.0668  159.6911 H       1  UNL1        0.1192
     22 H         142.4464  141.4255  158.2887 H       1  UNL1        0.1192
     23 C         142.8594  139.9096  167.7674 C.3     1  UNL1        0.1329
     24 C         141.8658  140.7619  168.4998 C.ar    1  UNL1        0.0004
     25 C         142.1677  142.2073  168.7637 C.ar    1  UNL1       -0.0024
     26 C         141.1742  143.0595  169.4961 C.ar    1  UNL1       -0.0003
     27 C         139.8786  142.4664  169.9647 C.ar    1  UNL1       -0.0000
     28 C         139.5766  141.0209  169.7009 C.ar    1  UNL1       -0.0003
     29 C         140.5702  140.1686  168.9684 C.ar    1  UNL1       -0.0024
@<TRIPOS>BOND
     1     1     2    1
     2     2     3   ar
     3     3     4   ar
     4     4     5   ar
     5     5     6   ar
     6     6    23    1
     7    23    24    1
     8    24    25   ar
     9    25    26   ar
    10    26    27   ar
    11    27    28   ar
    12    28    29   ar
    13     6     7   ar
    14     7     8   ar
    15     8     9   ar
    16     9    11    1
    17    11    12   ar
    18    12    13   ar
    19    13    14   ar
    20    14    15    1
    21    14    16   ar
    22    16    17   ar
    23    17    18    1
    24     9    10   ar
    25    10    19    1
    26    19    20    1
    27    10     2   ar
    28     8     4   ar
    29    17    11   ar
    30    29    24   ar
    31    20    21    1
    32    20    22    1
@<TRIPOS>MOLECULE
*****
 29 32 0 0 0
SMALL
GASTEIGER

@<TRIPOS>ATOM
      1 C         144.1399  139.8758  157.0550 C.3     1  UNL1        0.0518
      2 C         143.5882  139.9942  158.4450 C.ar    1  UNL1        0.0567
      3 N         143.7057  138.8427  159.3991 N.ar    1  UNL1       -0.2484
      4 C         143.1540  138.9610  160.7889 C.ar    1  UNL1        0.0995
      5 C         143.1225  138.0013  161.9413 C.ar    1  UNL1        0.0955
      6 N         142.4337  138.6780  163.0892 N.ar    1  UNL1       -0.3194
      7 C         142.0397  140.0559  162.6463 C.ar    1  UNL1        0.0777
      8 C         142.4848  140.2308  161.2246 C.ar    1  UNL1        0.0361
      9 C         142.3673  141.3822  160.2705 C.ar    1  UNL1        0.0022
     10 C         142.9190  141.2639  158.8806 C.ar    1  UNL1        0.0071
     11 C         141.6981  142.6520  160.7062 C.ar    1  UNL1        0.0105
     12 C         140.2393  142.8642  160.4291 C.ar    1  UNL1        0.0017
     13 C         139.5702  144.1341  160.8649 C.ar    1  UNL1        0.0114
     14 C         140.3598  145.1917  161.5776 C.ar    1  UNL1        0.0585
     15 CL        139.6907  146.4614  162.0133 Cl      1  UNL1       -0.0822
     16 C         141.8187  144.9794  161.8546 C.ar    1  UNL1        0.0228
     17 C         142.4878  143.7097  161.4189 C.ar    1  UNL1        0.0585
     18 CL        143.9467  143.4973  161.6959 Cl      1  UNL1       -0.0822
     19 C         142.8014  142.4154  157.9265 C.3     1  UNL1        0.0934
     20 N         143.8885  143.4467  157.8583 N.3     1  UNL1       -0.3174
     21 H         143.9273  143.9586  158.7397 H       1  UNL1        0.1192
     22 H         143.6937  144.0962  157.0963 H       1  UNL1        0.1192
     23 C         142.1831  138.0816  164.4425 C.3     1  UNL1        0.1329
     24 C         140.9253  138.4161  165.1883 C.ar    1  UNL1        0.0004
     25 C         139.6637  137.6537  164.9110 C.ar    1  UNL1       -0.0024
     26 C         138.4059  137.9882  165.6568 C.ar    1  UNL1       -0.0003
     27 C         138.4098  139.0851  166.6799 C.ar    1  UNL1       -0.0000
     28 C         139.6716  139.8475  166.9572 C.ar    1  UNL1       -0.0003
     29 C         140.9293  139.5130  166.2114 C.ar    1  UNL1       -0.0024
@<TRIPOS>BOND
     1     1     2    1
     2     2     3   ar
     3     3     4   ar
     4     4     5   ar
     5     5     6   ar
     6     6    23    1
     7    23    24    1
     8    24    25   ar
     9    25    26   ar
    10    26    27   ar
    11    27    28   ar
    12    28    29   ar
    13     6     7   ar
    14     7     8   ar
    15     8     9   ar
    16     9    11    1
    17    11    12   ar
    18    12    13   ar
    19    13    14   ar
    20    14    15    1
    21    14    16   ar
    22    16    17   ar
    23    17    18    1
    24     9    10   ar
    25    10    19    1
    26    19    20    1
    27    10     2   ar
    28     8     4   ar
    29    17    11   ar
    30    29    24   ar
    31    20    21    1
    32    20    22    1
@<TRIPOS>MOLECULE
*****
 29 32 0 0 0
SMALL
GASTEIGER

@<TRIPOS>ATOM
      1 C         143.7247  138.3057  160.5856 C.3     1  UNL1        0.0518
      2 C         143.1866  138.8685  161.8678 C.ar    1  UNL1        0.0567
      3 N         143.7091  138.3709  163.1829 N.ar    1  UNL1       -0.2484
      4 C         143.1711  138.9336  164.4650 C.ar    1  UNL1        0.0995
      5 C         143.4903  138.6417  165.9013 C.ar    1  UNL1        0.0955
      6 N         142.6271  139.5216  166.7560 N.ar    1  UNL1       -0.3194
      7 C         141.7745  140.3574  165.8480 C.ar    1  UNL1        0.0777
      8 C         142.1107  139.9940  164.4321 C.ar    1  UNL1        0.0361
      9 C         141.5883  140.4916  163.1170 C.ar    1  UNL1        0.0022
     10 C         142.1263  139.9288  161.8349 C.ar    1  UNL1        0.0071
     11 C         140.5278  141.5520  163.0840 C.ar    1  UNL1        0.0105
     12 C         140.9163  143.0002  163.0420 C.ar    1  UNL1        0.0017
     13 C         139.8558  144.0605  163.0090 C.ar    1  UNL1        0.0114
     14 C         138.4068  143.6727  163.0181 C.ar    1  UNL1        0.0585
     15 CL        137.3465  144.7330  162.9851 Cl      1  UNL1       -0.0822
     16 C         138.0184  142.2244  163.0601 C.ar    1  UNL1        0.0228
     17 C         139.0788  141.1641  163.0931 C.ar    1  UNL1        0.0585
     18 CL        138.6904  139.7159  163.1351 Cl      1  UNL1       -0.0822
     19 C         141.6038  140.4265  160.5198 C.3     1  UNL1        0.0934
     20 N         140.4158  139.7653  159.8862 N.3     1  UNL1       -0.3174
     21 H         140.6584  138.8102  159.6231 H       1  UNL1        0.1192
     22 H         140.1395  140.2873  159.0545 H       1  UNL1        0.1192
     23 C         142.6181  139.5593  168.2555 C.3     1  UNL1        0.1329
     24 C         141.7740  140.5689  168.9754 C.ar    1  UNL1        0.0004
     25 C         142.3298  141.9273  169.2847 C.ar    1  UNL1       -0.0024
     26 C         141.4857  142.9369  170.0046 C.ar    1  UNL1       -0.0003
     27 C         140.0858  142.5881  170.4152 C.ar    1  UNL1       -0.0000
     28 C         139.5300  141.2295  170.1058 C.ar    1  UNL1       -0.0003
     29 C         140.3741  140.2199  169.3859 C.ar    1  UNL1       -0.0024
@<TRIPOS>BOND
     1     1     2    1
     2     2     3   ar
     3     3     4   ar
     4     4     5   ar
     5     5     6   ar
     6     6    23    1
     7    23    24    1
     8    24    25   ar
     9    25    26   ar
    10    26    27   ar
    11    27    28   ar
    12    28    29   ar
    13     6     7   ar
    14     7     8   ar
    15     8     9   ar
    16     9    11    1
    17    11    12   ar
    18    12    13   ar
    19    13    14   ar
    20    14    15    1
    21    14    16   ar
    22    16    17   ar
    23    17    18    1
    24     9    10   ar
    25    10    19    1
    26    19    20    1
    27    10     2   ar
    28     8     4   ar
    29    17    11   ar
    30    29    24   ar
    31    20    21    1
    32    20    22    1
