@<TRIPOS>MOLECULE
*****
 30 33 0 0 0
SMALL
GASTEIGER

@<TRIPOS>ATOM
      1 O         143.0115  142.0627  159.9692 O.2     1  UNL1       -0.2505
      2 C         144.4232  142.4157  159.6055 C.2     1  UNL1        0.3269
      3 N         145.3782  142.8767  160.6663 N.am    1  UNL1       -0.2667
      4 N         144.8800  142.3077  158.1807 N.am    1  UNL1       -0.1624
      5 N         146.2540  142.6245  157.6690 N.2     1  UNL1       -0.1786
      6 C         146.2662  142.3766  156.1896 C.2     1  UNL1        0.0786
      7 C         144.8997  141.9066  155.7872 C.3     1  UNL1        0.0738
      8 C         144.0430  141.8641  157.0177 C.3     1  UNL1        0.1288
      9 H         146.3048  143.1083  160.4276 H       1  UNL1        0.1565
     10 C         144.9214  142.9846  162.0911 C.ar    1  UNL1        0.0539
     11 C         145.2378  141.8888  163.0652 C.ar    1  UNL1        0.0149
     12 C         144.7811  141.9968  164.4899 C.ar    1  UNL1        0.0036
     13 C         144.0079  143.2007  164.9404 C.ar    1  UNL1        0.0297
     14 C         143.6915  144.2965  163.9662 C.ar    1  UNL1        0.1414
     15 F         142.9183  145.5004  164.4167 F       1  UNL1       -0.2041
     16 C         144.1483  144.1885  162.5416 C.ar    1  UNL1        0.0443
     17 C         147.4388  142.5655  155.2736 C.ar    1  UNL1        0.0152
     18 C         148.6827  141.7504  155.4699 C.ar    1  UNL1        0.0017
     19 C         149.8554  141.9393  154.5539 C.ar    1  UNL1        0.0067
     20 C         149.7842  142.9432  153.4416 C.ar    1  UNL1        0.0346
     21 BR        150.9569  143.1321  152.5256 Br      1  UNL1       -0.0490
     22 C         148.5404  143.7583  153.2454 C.ar    1  UNL1        0.0067
     23 C         147.3677  143.5694  154.1614 C.ar    1  UNL1        0.0017
     24 C         142.6023  141.4506  157.0752 C.ar    1  UNL1       -0.0018
     25 C         142.2433  140.0142  157.3162 C.ar    1  UNL1       -0.0003
     26 C         140.8026  139.6008  157.3737 C.ar    1  UNL1        0.0294
     27 C         139.7208  140.6236  157.1903 C.ar    1  UNL1        0.1401
     28 F         138.2801  140.2100  157.2478 F       1  UNL1       -0.2042
     29 C         140.0798  142.0599  156.9493 C.ar    1  UNL1        0.0294
     30 C         141.5205  142.4734  156.8918 C.ar    1  UNL1       -0.0003
@<TRIPOS>BOND
     1     1     2    2
     2     2     3   am
     3     3    10    1
     4    10    11   ar
     5    11    12   ar
     6    12    13   ar
     7    13    14   ar
     8    14    15    1
     9    14    16   ar
    10     2     4   am
    11     4     5    1
    12     5     6    2
    13     6    17    1
    14    17    18   ar
    15    18    19   ar
    16    19    20   ar
    17    20    21    1
    18    20    22   ar
    19    22    23   ar
    20     6     7    1
    21     7     8    1
    22     8    24    1
    23    24    25   ar
    24    25    26   ar
    25    26    27   ar
    26    27    28    1
    27    27    29   ar
    28    29    30   ar
    29    16    10   ar
    30     8     4    1
    31    30    24   ar
    32    23    17   ar
    33     3     9    1
@<TRIPOS>MOLECULE
*****
 30 33 0 0 0
SMALL
GASTEIGER

@<TRIPOS>ATOM
      1 O         140.6000  141.6053  163.3264 O.2     1  UNL1       -0.2505
      2 C         139.7187  141.2637  162.1617 C.2     1  UNL1        0.3269
      3 N         138.8495  140.0422  162.2117 N.am    1  UNL1       -0.2667
      4 N         139.7065  142.1436  160.9469 N.am    1  UNL1       -0.1624
      5 N         138.8817  141.9306  159.7122 N.2     1  UNL1       -0.1786
      6 C         139.1824  143.0464  158.7557 C.2     1  UNL1        0.0786
      7 C         140.1931  143.9489  159.3993 C.3     1  UNL1        0.0738
      8 C         140.5170  143.3909  160.7535 C.3     1  UNL1        0.1288
      9 H         138.2711  139.8180  161.4472 H       1  UNL1        0.1565
     10 C         138.8617  139.1623  163.4265 C.ar    1  UNL1        0.0539
     11 C         139.6198  137.8681  163.4076 C.ar    1  UNL1        0.0149
     12 C         139.6319  136.9883  164.6224 C.ar    1  UNL1        0.0036
     13 C         138.8859  137.4026  165.8560 C.ar    1  UNL1        0.0297
     14 C         138.1278  138.6968  165.8749 C.ar    1  UNL1        0.1414
     15 F         137.3819  139.1111  167.1085 F       1  UNL1       -0.2041
     16 C         138.1157  139.5766  164.6601 C.ar    1  UNL1        0.0443
     17 C         138.5785  143.2277  157.3947 C.ar    1  UNL1        0.0152
     18 C         137.3561  142.4498  157.0068 C.ar    1  UNL1        0.0017
     19 C         136.7522  142.6312  155.6458 C.ar    1  UNL1        0.0067
     20 C         137.3708  143.5905  154.6726 C.ar    1  UNL1        0.0346
     21 BR        136.7669  143.7718  153.3116 Br      1  UNL1       -0.0490
     22 C         138.5933  144.3684  155.0605 C.ar    1  UNL1        0.0067
     23 C         139.1972  144.1870  156.4215 C.ar    1  UNL1        0.0017
     24 C         141.4818  143.9773  161.7409 C.ar    1  UNL1       -0.0018
     25 C         140.9908  144.9165  162.8024 C.ar    1  UNL1       -0.0003
     26 C         141.9558  145.5028  163.7898 C.ar    1  UNL1        0.0294
     27 C         143.4119  145.1500  163.7159 C.ar    1  UNL1        0.1401
     28 F         144.3767  145.7363  164.7033 F       1  UNL1       -0.2042
     29 C         143.9029  144.2107  162.6544 C.ar    1  UNL1        0.0294
     30 C         142.9379  143.6244  161.6670 C.ar    1  UNL1       -0.0003
@<TRIPOS>BOND
     1     1     2    2
     2     2     3   am
     3     3    10    1
     4    10    11   ar
     5    11    12   ar
     6    12    13   ar
     7    13    14   ar
     8    14    15    1
     9    14    16   ar
    10     2     4   am
    11     4     5    1
    12     5     6    2
    13     6    17    1
    14    17    18   ar
    15    18    19   ar
    16    19    20   ar
    17    20    21    1
    18    20    22   ar
    19    22    23   ar
    20     6     7    1
    21     7     8    1
    22     8    24    1
    23    24    25   ar
    24    25    26   ar
    25    26    27   ar
    26    27    28    1
    27    27    29   ar
    28    29    30   ar
    29    16    10   ar
    30     8     4    1
    31    30    24   ar
    32    23    17   ar
    33     3     9    1
@<TRIPOS>MOLECULE
*****
 30 33 0 0 0
SMALL
GASTEIGER

@<TRIPOS>ATOM
      1 O         139.3118  139.9235  156.1740 O.2     1  UNL1       -0.2505
      2 C         138.4788  140.0638  157.4135 C.2     1  UNL1        0.3269
      3 N         137.0935  140.6322  157.3259 N.am    1  UNL1       -0.2667
      4 N         139.0312  139.6355  158.7408 N.am    1  UNL1       -0.1624
      5 N         138.3197  139.7148  160.0589 N.2     1  UNL1       -0.1786
      6 C         139.2408  139.1811  161.1157 C.2     1  UNL1        0.0786
      7 C         140.5216  138.7719  160.4506 C.3     1  UNL1        0.0738
      8 C         140.3920  139.0527  158.9829 C.3     1  UNL1        0.1288
      9 H         136.5468  140.7243  158.1395 H       1  UNL1        0.1565
     10 C         136.5411  141.0605  155.9987 C.ar    1  UNL1        0.0539
     11 C         135.6898  140.1176  155.2011 C.ar    1  UNL1        0.0149
     12 C         135.1374  140.5459  153.8739 C.ar    1  UNL1        0.0036
     13 C         135.4364  141.9171  153.3443 C.ar    1  UNL1        0.0297
     14 C         136.2877  142.8600  154.1419 C.ar    1  UNL1        0.1414
     15 F         136.5866  144.2312  153.6123 F       1  UNL1       -0.2041
     16 C         136.8400  142.4317  155.4691 C.ar    1  UNL1        0.0443
     17 C         138.9349  139.0751  162.5803 C.ar    1  UNL1        0.0152
     18 C         138.4059  140.2655  163.3241 C.ar    1  UNL1        0.0017
     19 C         138.1000  140.1595  164.7887 C.ar    1  UNL1        0.0067
     20 C         138.3231  138.8632  165.5096 C.ar    1  UNL1        0.0346
     21 BR        138.0172  138.7572  166.9742 Br      1  UNL1       -0.0490
     22 C         138.8521  137.6728  164.7658 C.ar    1  UNL1        0.0067
     23 C         139.1580  137.7787  163.3012 C.ar    1  UNL1        0.0017
     24 C         141.4393  138.7959  157.9402 C.ar    1  UNL1       -0.0018
     25 C         141.4648  137.4863  157.2093 C.ar    1  UNL1       -0.0003
     26 C         142.5122  137.2296  156.1667 C.ar    1  UNL1        0.0294
     27 C         143.5341  138.2825  155.8548 C.ar    1  UNL1        0.1401
     28 F         144.5814  138.0257  154.8122 F       1  UNL1       -0.2042
     29 C         143.5086  139.5921  156.5857 C.ar    1  UNL1        0.0294
     30 C         142.4612  139.8488  157.6284 C.ar    1  UNL1       -0.0003
@<TRIPOS>BOND
     1     1     2    2
     2     2     3   am
     3     3    10    1
     4    10    11   ar
     5    11    12   ar
     6    12    13   ar
     7    13    14   ar
     8    14    15    1
     9    14    16   ar
    10     2     4   am
    11     4     5    1
    12     5     6    2
    13     6    17    1
    14    17    18   ar
    15    18    19   ar
    16    19    20   ar
    17    20    21    1
    18    20    22   ar
    19    22    23   ar
    20     6     7    1
    21     7     8    1
    22     8    24    1
    23    24    25   ar
    24    25    26   ar
    25    26    27   ar
    26    27    28    1
    27    27    29   ar
    28    29    30   ar
    29    16    10   ar
    30     8     4    1
    31    30    24   ar
    32    23    17   ar
    33     3     9    1
@<TRIPOS>MOLECULE
*****
 30 33 0 0 0
SMALL
GASTEIGER

@<TRIPOS>ATOM
      1 O         140.0207  142.8282  160.0173 O.2     1  UNL1       -0.2505
      2 C         139.9917  144.2648  159.5870 C.2     1  UNL1        0.3269
      3 N         139.9442  145.3552  160.6160 N.am    1  UNL1       -0.2667
      4 N         140.0101  144.6111  158.1276 N.am    1  UNL1       -0.1624
      5 N         139.9852  145.9950  157.5495 N.2     1  UNL1       -0.1786
      6 C         140.0164  145.8736  156.0547 C.2     1  UNL1        0.0786
      7 C         140.0605  144.4146  155.7090 C.3     1  UNL1        0.0738
      8 C         140.0567  143.6344  156.9901 C.3     1  UNL1        0.1288
      9 H         139.9252  146.2981  160.3335 H       1  UNL1        0.1565
     10 C         139.9258  145.0089  162.0754 C.ar    1  UNL1        0.0539
     11 C         141.2155  144.8238  162.8186 C.ar    1  UNL1        0.0149
     12 C         141.1970  144.4775  164.2780 C.ar    1  UNL1        0.0036
     13 C         139.8889  144.3163  164.9941 C.ar    1  UNL1        0.0297
     14 C         138.5992  144.5014  164.2508 C.ar    1  UNL1        0.1414
     15 F         137.2911  144.3402  164.9669 F       1  UNL1       -0.2041
     16 C         138.6177  144.8477  162.7915 C.ar    1  UNL1        0.0443
     17 C         140.0053  147.0113  155.0772 C.ar    1  UNL1        0.0152
     18 C         139.2639  148.2736  155.4040 C.ar    1  UNL1        0.0017
     19 C         139.2528  149.4114  154.4265 C.ar    1  UNL1        0.0067
     20 C         139.9832  149.2867  153.1223 C.ar    1  UNL1        0.0346
     21 BR        139.9722  150.4244  152.1448 Br      1  UNL1       -0.0490
     22 C         140.7247  148.0244  152.7955 C.ar    1  UNL1        0.0067
     23 C         140.7357  146.8867  153.7730 C.ar    1  UNL1        0.0017
     24 C         140.0930  142.1398  157.1124 C.ar    1  UNL1       -0.0018
     25 C         141.4093  141.4264  157.2020 C.ar    1  UNL1       -0.0003
     26 C         141.4455  139.9318  157.3243 C.ar    1  UNL1        0.0294
     27 C         140.1654  139.1506  157.3570 C.ar    1  UNL1        0.1401
     28 F         140.2017  137.6561  157.4793 F       1  UNL1       -0.2042
     29 C         138.8490  139.8641  157.2674 C.ar    1  UNL1        0.0294
     30 C         138.8128  141.3587  157.1451 C.ar    1  UNL1       -0.0003
@<TRIPOS>BOND
     1     1     2    2
     2     2     3   am
     3     3    10    1
     4    10    11   ar
     5    11    12   ar
     6    12    13   ar
     7    13    14   ar
     8    14    15    1
     9    14    16   ar
    10     2     4   am
    11     4     5    1
    12     5     6    2
    13     6    17    1
    14    17    18   ar
    15    18    19   ar
    16    19    20   ar
    17    20    21    1
    18    20    22   ar
    19    22    23   ar
    20     6     7    1
    21     7     8    1
    22     8    24    1
    23    24    25   ar
    24    25    26   ar
    25    26    27   ar
    26    27    28    1
    27    27    29   ar
    28    29    30   ar
    29    16    10   ar
    30     8     4    1
    31    30    24   ar
    32    23    17   ar
    33     3     9    1
@<TRIPOS>MOLECULE
*****
 30 33 0 0 0
SMALL
GASTEIGER

@<TRIPOS>ATOM
      1 O         141.3945  141.2564  162.6304 O.2     1  UNL1       -0.2505
      2 C         141.1267  141.0430  161.1700 C.2     1  UNL1        0.3269
      3 N         140.4021  142.0917  160.3793 N.am    1  UNL1       -0.2667
      4 N         141.5833  139.7808  160.5003 N.am    1  UNL1       -0.1624
      5 N         141.3882  139.4292  159.0552 N.2     1  UNL1       -0.1786
      6 C         141.9995  138.0797  158.8199 C.2     1  UNL1        0.0786
      7 C         142.5725  137.5975  160.1196 C.3     1  UNL1        0.0738
      8 C         142.3153  138.6488  161.1581 C.3     1  UNL1        0.1288
      9 H         140.2263  141.9517  159.4208 H       1  UNL1        0.1565
     10 C         139.9455  143.3539  161.0490 C.ar    1  UNL1        0.0539
     11 C         140.5688  144.6671  160.6790 C.ar    1  UNL1        0.0149
     12 C         140.1121  145.9292  161.3487 C.ar    1  UNL1        0.0036
     13 C         139.0321  145.8781  162.3884 C.ar    1  UNL1        0.0297
     14 C         138.4088  144.5649  162.7584 C.ar    1  UNL1        0.1414
     15 F         137.3287  144.5138  163.7981 F       1  UNL1       -0.2041
     16 C         138.8654  143.3028  162.0887 C.ar    1  UNL1        0.0443
     17 C         142.0322  137.3421  157.5142 C.ar    1  UNL1        0.0152
     18 C         143.1043  136.3260  157.2534 C.ar    1  UNL1        0.0017
     19 C         143.1370  135.5884  155.9477 C.ar    1  UNL1        0.0067
     20 C         142.0975  135.8670  154.9028 C.ar    1  UNL1        0.0346
     21 BR        142.1301  135.1294  153.5971 Br      1  UNL1       -0.0490
     22 C         141.0254  136.8831  155.1636 C.ar    1  UNL1        0.0067
     23 C         140.9927  137.6207  156.4693 C.ar    1  UNL1        0.0017
     24 C         142.7191  138.5802  162.6011 C.ar    1  UNL1       -0.0018
     25 C         144.0315  139.1581  163.0410 C.ar    1  UNL1       -0.0003
     26 C         144.4352  139.0894  164.4840 C.ar    1  UNL1        0.0294
     27 C         143.5265  138.4429  165.4872 C.ar    1  UNL1        0.1401
     28 F         143.9303  138.3742  166.9302 F       1  UNL1       -0.2042
     29 C         142.2141  137.8649  165.0473 C.ar    1  UNL1        0.0294
     30 C         141.8104  137.9336  163.6043 C.ar    1  UNL1       -0.0003
@<TRIPOS>BOND
     1     1     2    2
     2     2     3   am
     3     3    10    1
     4    10    11   ar
     5    11    12   ar
     6    12    13   ar
     7    13    14   ar
     8    14    15    1
     9    14    16   ar
    10     2     4   am
    11     4     5    1
    12     5     6    2
    13     6    17    1
    14    17    18   ar
    15    18    19   ar
    16    19    20   ar
    17    20    21    1
    18    20    22   ar
    19    22    23   ar
    20     6     7    1
    21     7     8    1
    22     8    24    1
    23    24    25   ar
    24    25    26   ar
    25    26    27   ar
    26    27    28    1
    27    27    29   ar
    28    29    30   ar
    29    16    10   ar
    30     8     4    1
    31    30    24   ar
    32    23    17   ar
    33     3     9    1
@<TRIPOS>MOLECULE
*****
 30 33 0 0 0
SMALL
GASTEIGER

@<TRIPOS>ATOM
      1 O         144.8779  142.5177  157.8802 O.2     1  UNL1       -0.2505
      2 C         144.1570  141.2321  158.1586 C.2     1  UNL1        0.3269
      3 N         143.4556  141.0341  159.4696 N.am    1  UNL1       -0.2667
      4 N         144.1375  140.1444  157.1258 N.am    1  UNL1       -0.1624
      5 N         143.4617  138.8121  157.2612 N.2     1  UNL1       -0.1786
      6 C         143.6969  138.0423  155.9954 C.2     1  UNL1        0.0786
      7 C         144.5181  138.8989  155.0778 C.3     1  UNL1        0.0738
      8 C         144.7904  140.1980  155.7764 C.3     1  UNL1        0.1288
      9 H         142.9825  140.1903  159.6522 H       1  UNL1        0.1565
     10 C         143.4751  142.1219  160.5024 C.ar    1  UNL1        0.0539
     11 C         144.6065  142.2041  161.4838 C.ar    1  UNL1        0.0149
     12 C         144.6259  143.2917  162.5165 C.ar    1  UNL1        0.0036
     13 C         143.5140  144.2972  162.5678 C.ar    1  UNL1        0.0297
     14 C         142.3826  144.2150  161.5864 C.ar    1  UNL1        0.1414
     15 F         141.2707  145.2205  161.6377 F       1  UNL1       -0.2041
     16 C         142.3632  143.1273  160.5537 C.ar    1  UNL1        0.0443
     17 C         143.1984  136.6589  155.6993 C.ar    1  UNL1        0.0152
     18 C         142.6649  136.3296  154.3366 C.ar    1  UNL1        0.0017
     19 C         142.1665  134.9462  154.0404 C.ar    1  UNL1        0.0067
     20 C         142.2016  133.8921  155.1070 C.ar    1  UNL1        0.0346
     21 BR        141.7031  132.5087  154.8109 Br      1  UNL1       -0.0490
     22 C         142.7351  134.2213  156.4697 C.ar    1  UNL1        0.0067
     23 C         143.2335  135.6048  156.7658 C.ar    1  UNL1        0.0017
     24 C         145.5773  141.3487  155.2229 C.ar    1  UNL1       -0.0018
     25 C         147.0615  141.4116  155.4311 C.ar    1  UNL1       -0.0003
     26 C         147.8484  142.5624  154.8776 C.ar    1  UNL1        0.0294
     27 C         147.1512  143.6504  154.1157 C.ar    1  UNL1        0.1401
     28 F         147.9382  144.8011  153.5622 F       1  UNL1       -0.2042
     29 C         145.6671  143.5875  153.9075 C.ar    1  UNL1        0.0294
     30 C         144.8802  142.4367  154.4610 C.ar    1  UNL1       -0.0003
@<TRIPOS>BOND
     1     1     2    2
     2     2     3   am
     3     3    10    1
     4    10    11   ar
     5    11    12   ar
     6    12    13   ar
     7    13    14   ar
     8    14    15    1
     9    14    16   ar
    10     2     4   am
    11     4     5    1
    12     5     6    2
    13     6    17    1
    14    17    18   ar
    15    18    19   ar
    16    19    20   ar
    17    20    21    1
    18    20    22   ar
    19    22    23   ar
    20     6     7    1
    21     7     8    1
    22     8    24    1
    23    24    25   ar
    24    25    26   ar
    25    26    27   ar
    26    27    28    1
    27    27    29   ar
    28    29    30   ar
    29    16    10   ar
    30     8     4    1
    31    30    24   ar
    32    23    17   ar
    33     3     9    1
@<TRIPOS>MOLECULE
*****
 30 33 0 0 0
SMALL
GASTEIGER

@<TRIPOS>ATOM
      1 O         143.1500  141.3707  160.1482 O.2     1  UNL1       -0.2505
      2 C         144.4250  142.0408  159.7293 C.2     1  UNL1        0.3269
      3 N         145.1822  142.8900  160.7068 N.am    1  UNL1       -0.2667
      4 N         144.9427  141.8617  158.3329 N.am    1  UNL1       -0.1624
      5 N         146.1962  142.4661  157.7731 N.2     1  UNL1       -0.1786
      6 C         146.3260  142.0247  156.3453 C.2     1  UNL1        0.0786
      7 C         145.1527  141.1476  156.0228 C.3     1  UNL1        0.0738
      8 C         144.2978  141.0468  157.2512 C.3     1  UNL1        0.1288
      9 H         146.0190  143.3298  160.4318 H       1  UNL1        0.1565
     10 C         144.6645  143.0691  162.1032 C.ar    1  UNL1        0.0539
     11 C         144.1558  144.4080  162.5486 C.ar    1  UNL1        0.0149
     12 C         143.6382  144.5871  163.9449 C.ar    1  UNL1        0.0036
     13 C         143.6292  143.4271  164.8960 C.ar    1  UNL1        0.0297
     14 C         144.1379  142.0882  164.4507 C.ar    1  UNL1        0.1414
     15 F         144.1289  140.9283  165.4017 F       1  UNL1       -0.2041
     16 C         144.6556  141.9091  163.0543 C.ar    1  UNL1        0.0443
     17 C         147.4345  142.3954  155.4052 C.ar    1  UNL1        0.0152
     18 C         148.7637  141.7074  155.5045 C.ar    1  UNL1        0.0017
     19 C         149.8722  142.0781  154.5644 C.ar    1  UNL1        0.0067
     20 C         149.6514  143.1368  153.5249 C.ar    1  UNL1        0.0346
     21 BR        150.7599  143.5075  152.5848 Br      1  UNL1       -0.0490
     22 C         148.3222  143.8248  153.4256 C.ar    1  UNL1        0.0067
     23 C         147.2137  143.4541  154.3657 C.ar    1  UNL1        0.0017
     24 C         143.0220  140.2680  157.3761 C.ar    1  UNL1       -0.0018
     25 C         143.0579  138.8357  157.8203 C.ar    1  UNL1       -0.0003
     26 C         141.7821  138.0569  157.9451 C.ar    1  UNL1        0.0294
     27 C         140.4701  138.7104  157.6257 C.ar    1  UNL1        0.1401
     28 F         139.1943  137.9315  157.7506 F       1  UNL1       -0.2042
     29 C         140.4341  140.1426  157.1815 C.ar    1  UNL1        0.0294
     30 C         141.7100  140.9214  157.0567 C.ar    1  UNL1       -0.0003
@<TRIPOS>BOND
     1     1     2    2
     2     2     3   am
     3     3    10    1
     4    10    11   ar
     5    11    12   ar
     6    12    13   ar
     7    13    14   ar
     8    14    15    1
     9    14    16   ar
    10     2     4   am
    11     4     5    1
    12     5     6    2
    13     6    17    1
    14    17    18   ar
    15    18    19   ar
    16    19    20   ar
    17    20    21    1
    18    20    22   ar
    19    22    23   ar
    20     6     7    1
    21     7     8    1
    22     8    24    1
    23    24    25   ar
    24    25    26   ar
    25    26    27   ar
    26    27    28    1
    27    27    29   ar
    28    29    30   ar
    29    16    10   ar
    30     8     4    1
    31    30    24   ar
    32    23    17   ar
    33     3     9    1
@<TRIPOS>MOLECULE
*****
 30 33 0 0 0
SMALL
GASTEIGER

@<TRIPOS>ATOM
      1 O         142.0801  136.4149  157.0584 O.2     1  UNL1       -0.2505
      2 C         143.3454  136.6795  156.2975 C.2     1  UNL1        0.3269
      3 N         144.1471  135.5342  155.7538 N.am    1  UNL1       -0.2667
      4 N         143.8091  138.0895  156.0803 N.am    1  UNL1       -0.1624
      5 N         145.0471  138.5068  155.3432 N.2     1  UNL1       -0.1786
      6 C         145.1193  140.0049  155.3694 C.2     1  UNL1        0.0786
      7 C         143.9259  140.5133  156.1227 C.3     1  UNL1        0.0738
      8 C         143.1162  139.3296  156.5620 C.3     1  UNL1        0.1288
      9 H         144.9775  135.7079  155.2543 H       1  UNL1        0.1565
     10 C         143.6834  134.1243  155.9710 C.ar    1  UNL1        0.0539
     11 C         142.5536  133.5720  155.1534 C.ar    1  UNL1        0.0149
     12 C         142.0900  132.1621  155.3706 C.ar    1  UNL1        0.0036
     13 C         142.7562  131.3045  156.4054 C.ar    1  UNL1        0.0297
     14 C         143.8860  131.8568  157.2229 C.ar    1  UNL1        0.1414
     15 F         144.5523  130.9992  158.2577 F       1  UNL1       -0.2041
     16 C         144.3496  133.2667  157.0057 C.ar    1  UNL1        0.0443
     17 C         146.1958  140.8466  154.7509 C.ar    1  UNL1        0.0152
     18 C         146.3435  140.8981  153.2591 C.ar    1  UNL1        0.0017
     19 C         147.4201  141.7399  152.6407 C.ar    1  UNL1        0.0067
     20 C         148.3489  142.5301  153.5140 C.ar    1  UNL1        0.0346
     21 BR        149.4254  143.3719  152.8956 Br      1  UNL1       -0.0490
     22 C         148.2011  142.4786  155.0059 C.ar    1  UNL1        0.0067
     23 C         147.1246  141.6369  155.6243 C.ar    1  UNL1        0.0017
     24 C         141.8380  139.3774  157.3455 C.ar    1  UNL1       -0.0018
     25 C         140.5238  139.4871  156.6307 C.ar    1  UNL1       -0.0003
     26 C         139.2456  139.5349  157.4143 C.ar    1  UNL1        0.0294
     27 C         139.2815  139.4731  158.9126 C.ar    1  UNL1        0.1401
     28 F         138.0034  139.5209  159.6961 F       1  UNL1       -0.2042
     29 C         140.5957  139.3634  159.6274 C.ar    1  UNL1        0.0294
     30 C         141.8739  139.3155  158.8438 C.ar    1  UNL1       -0.0003
@<TRIPOS>BOND
     1     1     2    2
     2     2     3   am
     3     3    10    1
     4    10    11   ar
     5    11    12   ar
     6    12    13   ar
     7    13    14   ar
     8    14    15    1
     9    14    16   ar
    10     2     4   am
    11     4     5    1
    12     5     6    2
    13     6    17    1
    14    17    18   ar
    15    18    19   ar
    16    19    20   ar
    17    20    21    1
    18    20    22   ar
    19    22    23   ar
    20     6     7    1
    21     7     8    1
    22     8    24    1
    23    24    25   ar
    24    25    26   ar
    25    26    27   ar
    26    27    28    1
    27    27    29   ar
    28    29    30   ar
    29    16    10   ar
    30     8     4    1
    31    30    24   ar
    32    23    17   ar
    33     3     9    1
@<TRIPOS>MOLECULE
*****
 30 33 0 0 0
SMALL
GASTEIGER

@<TRIPOS>ATOM
      1 O         140.2813  143.1915  159.6543 O.2     1  UNL1       -0.2505
      2 C         140.1106  144.6487  159.3423 C.2     1  UNL1        0.3269
      3 N         139.9647  145.6422  160.4566 N.am    1  UNL1       -0.2667
      4 N         140.0859  145.1124  157.9159 N.am    1  UNL1       -0.1624
      5 N         139.9235  146.5297  157.4524 N.2     1  UNL1       -0.1786
      6 C         139.9564  146.5335  155.9527 C.2     1  UNL1        0.0786
      7 C         140.1392  145.1186  155.4895 C.3     1  UNL1        0.0738
      8 C         140.2192  144.2403  156.7028 C.3     1  UNL1        0.1288
      9 H         139.8527  146.5986  160.2518 H       1  UNL1        0.1565
     10 C         139.9894  145.1785  161.8829 C.ar    1  UNL1        0.0539
     11 C         138.7030  144.9518  162.6203 C.ar    1  UNL1        0.0149
     12 C         138.7278  144.4881  164.0465 C.ar    1  UNL1        0.0036
     13 C         140.0389  144.2511  164.7355 C.ar    1  UNL1        0.0297
     14 C         141.3254  144.4778  163.9981 C.ar    1  UNL1        0.1414
     15 F         142.6365  144.2408  164.6871 F       1  UNL1       -0.2041
     16 C         141.3006  144.9415  162.5719 C.ar    1  UNL1        0.0443
     17 C         139.8290  147.7404  155.0711 C.ar    1  UNL1        0.0152
     18 C         140.4235  147.7293  153.6939 C.ar    1  UNL1        0.0017
     19 C         140.2960  148.9362  152.8123 C.ar    1  UNL1        0.0067
     20 C         139.5741  150.1540  153.3078 C.ar    1  UNL1        0.0346
     21 BR        139.4466  151.3609  152.4262 Br      1  UNL1       -0.0490
     22 C         138.9796  150.1651  154.6849 C.ar    1  UNL1        0.0067
     23 C         139.1070  148.9582  155.5666 C.ar    1  UNL1        0.0017
     24 C         140.4007  142.7514  156.7031 C.ar    1  UNL1       -0.0018
     25 C         139.2023  141.8497  156.6756 C.ar    1  UNL1       -0.0003
     26 C         139.3839  140.3607  156.6759 C.ar    1  UNL1        0.0294
     27 C         140.7639  139.7733  156.7037 C.ar    1  UNL1        0.1401
     28 F         140.9454  138.2844  156.7040 F       1  UNL1       -0.2042
     29 C         141.9623  140.6750  156.7312 C.ar    1  UNL1        0.0294
     30 C         141.7807  142.1640  156.7310 C.ar    1  UNL1       -0.0003
@<TRIPOS>BOND
     1     1     2    2
     2     2     3   am
     3     3    10    1
     4    10    11   ar
     5    11    12   ar
     6    12    13   ar
     7    13    14   ar
     8    14    15    1
     9    14    16   ar
    10     2     4   am
    11     4     5    1
    12     5     6    2
    13     6    17    1
    14    17    18   ar
    15    18    19   ar
    16    19    20   ar
    17    20    21    1
    18    20    22   ar
    19    22    23   ar
    20     6     7    1
    21     7     8    1
    22     8    24    1
    23    24    25   ar
    24    25    26   ar
    25    26    27   ar
    26    27    28    1
    27    27    29   ar
    28    29    30   ar
    29    16    10   ar
    30     8     4    1
    31    30    24   ar
    32    23    17   ar
    33     3     9    1
