@<TRIPOS>MOLECULE
*****
 29 33 0 0 0
SMALL
GASTEIGER

@<TRIPOS>ATOM
      1 C         142.0268  143.4511  164.4675 C.cat   1  UNL1        0.4253
      2 N         140.8745  144.4061  164.3668 N.2     1  UNL1       -0.0636
      3 C         140.7205  144.7966  162.9268 C.2     1  UNL1        0.2354
      4 C         139.7543  145.7099  162.2323 C.2     1  UNL1        0.2748
      5 N         139.8451  145.9095  160.7485 N.2     1  UNL1       -0.0370
      6 C         140.9022  145.1958  159.9591 C.2     1  UNL1        0.3081
      7 C         141.8685  144.2825  160.6535 C.3     1  UNL1        0.1842
      8 C         141.7776  144.0830  162.1374 C.2     1  UNL1        0.1862
      9 N         142.5849  143.2514  163.0896 N.2     1  UNL1       -0.0710
     10 N         140.9931  145.3954  158.4751 N.pl3   1  UNL1       -0.1910
     11 C         142.1135  144.7667  157.7010 C.3     1  UNL1        0.2194
     12 C         142.2044  144.9663  156.2171 C.3     1  UNL1        0.1237
     13 N         141.1747  145.7946  155.5073 N.3     1  UNL1       -0.2645
     14 C         141.2655  145.9942  154.0235 C.3     1  UNL1        0.0898
     15 C         140.0542  146.4233  156.2815 C.3     1  UNL1        0.1237
     16 C         139.9634  146.2237  157.7654 C.3     1  UNL1        0.2194
     17 N         142.5322  142.8086  165.7251 N.pl3   1  UNL1       -0.1848
     18 H         143.4958  142.8129  165.9272 H       1  UNL1        0.2530
     19 C         140.4236  142.4680  170.4620 C.3     1  UNL1        0.0546
     20 C         140.5153  141.9893  169.0434 C.ar    1  UNL1        0.0891
     21 N         141.4779  142.6383  168.0936 N.ar    1  UNL1       -0.2185
     22 C         141.5696  142.1596  166.6749 C.ar    1  UNL1        0.1931
     23 C         140.6987  141.0319  166.2061 C.ar    1  UNL1        0.0496
     24 C         139.7361  140.3829  167.1560 C.ar    1  UNL1        0.0103
     25 C         139.6444  140.8616  168.5746 C.ar    1  UNL1        0.1498
     26 F         138.6817  140.2126  169.5245 F       1  UNL1       -0.2033
     27 C         138.8651  139.2552  166.6872 C.3     1  UNL1        0.0247
     28 C         138.5670  138.1697  165.6959 C.3     1  UNL1        0.0048
     29 C         137.6548  138.3874  166.8667 C.3     1  UNL1        0.0048
@<TRIPOS>BOND
     1    19    20    1
     2    20    21   ar
     3    21    22   ar
     4    22    17    1
     5    17     1    1
     6     1     2    2
     7     2     3    1
     8     3     4    2
     9     4     5    1
    10     5     6    2
    11     6    10    1
    12    10    11    1
    13    11    12    1
    14    12    13    1
    15    13    14    1
    16    13    15    1
    17    15    16    1
    18     6     7    1
    19     7     8    1
    20     8     9    2
    21    22    23   ar
    22    23    24   ar
    23    24    27    1
    24    27    28    1
    25    28    29    1
    26    24    25   ar
    27    25    26    1
    28    25    20   ar
    29     9     1    1
    30    29    27    1
    31     8     3    1
    32    16    10    1
    33    17    18    1
@<TRIPOS>MOLECULE
*****
 29 33 0 0 0
SMALL
GASTEIGER

@<TRIPOS>ATOM
      1 C         143.4197  142.5572  165.3691 C.cat   1  UNL1        0.4253
      2 N         142.7923  143.6674  164.5793 N.2     1  UNL1       -0.0636
      3 C         143.0493  143.4045  163.1250 C.2     1  UNL1        0.2354
      4 C         142.6690  144.1596  161.8860 C.2     1  UNL1        0.2748
      5 N         143.0750  143.6420  160.5380 N.2     1  UNL1       -0.0370
      6 C         143.8613  142.3692  160.4290 C.2     1  UNL1        0.3081
      7 C         144.2416  141.6142  161.6680 C.3     1  UNL1        0.1842
      8 C         143.8356  142.1318  163.0160 C.2     1  UNL1        0.1862
      9 N         144.0645  141.6081  164.4029 N.2     1  UNL1       -0.0710
     10 N         144.2672  141.8516  159.0809 N.pl3   1  UNL1       -0.1910
     11 C         143.6291  140.6106  158.5307 C.3     1  UNL1        0.2194
     12 C         144.0351  140.0930  157.1826 C.3     1  UNL1        0.1237
     13 N         145.0792  140.8164  156.3848 N.3     1  UNL1       -0.2645
     14 C         145.4852  140.2988  155.0367 C.3     1  UNL1        0.0898
     15 C         145.7173  142.0574  156.9350 C.3     1  UNL1        0.1237
     16 C         145.3113  142.5750  158.2831 C.3     1  UNL1        0.2194
     17 N         143.4049  142.4201  166.8627 N.pl3   1  UNL1       -0.1848
     18 H         144.1953  142.6804  167.3888 H       1  UNL1        0.2530
     19 C         140.3771  142.1544  171.0773 C.3     1  UNL1        0.0546
     20 C         140.6719  141.7537  169.6621 C.ar    1  UNL1        0.0891
     21 N         141.8910  142.2873  168.9700 N.ar    1  UNL1       -0.2185
     22 C         142.1858  141.8866  167.5548 C.ar    1  UNL1        0.1931
     23 C         141.2614  140.9522  166.8319 C.ar    1  UNL1        0.0496
     24 C         140.0423  140.4187  167.5241 C.ar    1  UNL1        0.0103
     25 C         139.7476  140.8194  168.9392 C.ar    1  UNL1        0.1498
     26 F         138.5284  140.2858  169.6314 F       1  UNL1       -0.2033
     27 C         139.1180  139.4843  166.8012 C.3     1  UNL1        0.0247
     28 C         137.8619  138.6650  166.7708 C.3     1  UNL1        0.0048
     29 C         138.7730  138.6855  165.5794 C.3     1  UNL1        0.0048
@<TRIPOS>BOND
     1    19    20    1
     2    20    21   ar
     3    21    22   ar
     4    22    17    1
     5    17     1    1
     6     1     2    2
     7     2     3    1
     8     3     4    2
     9     4     5    1
    10     5     6    2
    11     6    10    1
    12    10    11    1
    13    11    12    1
    14    12    13    1
    15    13    14    1
    16    13    15    1
    17    15    16    1
    18     6     7    1
    19     7     8    1
    20     8     9    2
    21    22    23   ar
    22    23    24   ar
    23    24    27    1
    24    27    28    1
    25    28    29    1
    26    24    25   ar
    27    25    26    1
    28    25    20   ar
    29     9     1    1
    30    29    27    1
    31     8     3    1
    32    16    10    1
    33    17    18    1
@<TRIPOS>MOLECULE
*****
 29 33 0 0 0
SMALL
GASTEIGER

@<TRIPOS>ATOM
      1 C         143.3188  142.5377  165.2551 C.cat   1  UNL1        0.4253
      2 N         144.1436  141.7613  164.2717 N.2     1  UNL1       -0.0636
      3 C         143.7840  142.2300  162.8930 C.2     1  UNL1        0.2354
      4 C         144.2748  141.8237  161.5350 C.2     1  UNL1        0.2748
      5 N         143.7184  142.4836  160.3082 N.2     1  UNL1       -0.0370
      6 C         142.6714  143.5497  160.4394 C.2     1  UNL1        0.3081
      7 C         142.1807  143.9559  161.7974 C.3     1  UNL1        0.1842
      8 C         142.7370  143.2960  163.0241 C.2     1  UNL1        0.1862
      9 N         142.4495  143.4862  164.4840 N.2     1  UNL1       -0.0710
     10 N         142.1151  144.2095  159.2125 N.pl3   1  UNL1       -0.1910
     11 C         142.7002  143.9036  157.8657 C.3     1  UNL1        0.2194
     12 C         142.1438  144.5635  156.6388 C.3     1  UNL1        0.1237
     13 N         141.0024  145.5293  156.7588 N.3     1  UNL1       -0.2645
     14 C         140.4461  146.1891  155.5320 C.3     1  UNL1        0.0898
     15 C         140.4174  145.8352  158.1058 C.3     1  UNL1        0.1237
     16 C         140.9737  145.1753  159.3325 C.3     1  UNL1        0.2194
     17 N         143.3567  142.3912  166.7474 N.pl3   1  UNL1       -0.1848
     18 H         144.1643  142.6507  167.2472 H       1  UNL1        0.2530
     19 C         140.4931  142.0692  171.0714 C.3     1  UNL1        0.0546
     20 C         140.7324  141.6884  169.6404 C.ar    1  UNL1        0.0891
     21 N         141.9249  142.2302  168.9094 N.ar    1  UNL1       -0.2185
     22 C         142.1642  141.8494  167.4784 C.ar    1  UNL1        0.1931
     23 C         141.2109  140.9268  166.7784 C.ar    1  UNL1        0.0496
     24 C         140.0184  140.3849  167.5094 C.ar    1  UNL1        0.0103
     25 C         139.7791  140.7658  168.9404 C.ar    1  UNL1        0.1498
     26 F         138.5866  140.2239  169.6714 F       1  UNL1       -0.2033
     27 C         139.0651  139.4623  166.8094 C.3     1  UNL1        0.0247
     28 C         138.6895  138.6536  165.6032 C.3     1  UNL1        0.0048
     29 C         137.7896  138.6731  166.8031 C.3     1  UNL1        0.0048
@<TRIPOS>BOND
     1    19    20    1
     2    20    21   ar
     3    21    22   ar
     4    22    17    1
     5    17     1    1
     6     1     2    2
     7     2     3    1
     8     3     4    2
     9     4     5    1
    10     5     6    2
    11     6    10    1
    12    10    11    1
    13    11    12    1
    14    12    13    1
    15    13    14    1
    16    13    15    1
    17    15    16    1
    18     6     7    1
    19     7     8    1
    20     8     9    2
    21    22    23   ar
    22    23    24   ar
    23    24    27    1
    24    27    28    1
    25    28    29    1
    26    24    25   ar
    27    25    26    1
    28    25    20   ar
    29     9     1    1
    30    29    27    1
    31     8     3    1
    32    16    10    1
    33    17    18    1
@<TRIPOS>MOLECULE
*****
 29 33 0 0 0
SMALL
GASTEIGER

@<TRIPOS>ATOM
      1 C         139.7460  143.4393  165.3247 C.cat   1  UNL1        0.4253
      2 N         138.6105  142.8032  164.5791 N.2     1  UNL1       -0.0636
      3 C         138.8191  143.0537  163.1149 C.2     1  UNL1        0.2354
      4 C         138.0211  142.6637  161.9062 C.2     1  UNL1        0.2748
      5 N         138.4876  143.0647  160.5382 N.2     1  UNL1       -0.0370
      6 C         139.7521  143.8557  160.3789 C.2     1  UNL1        0.3081
      7 C         140.5501  144.2457  161.5876 C.3     1  UNL1        0.1842
      8 C         140.0836  143.8446  162.9556 C.2     1  UNL1        0.1862
      9 N         140.6564  144.0830  164.3213 N.2     1  UNL1       -0.0710
     10 N         140.2185  144.2567  159.0108 N.pl3   1  UNL1       -0.1910
     11 C         141.3764  145.1981  158.8592 C.3     1  UNL1        0.2194
     12 C         141.8429  145.5991  157.4910 C.3     1  UNL1        0.1237
     13 N         141.1514  145.0587  156.2746 N.3     1  UNL1       -0.2645
     14 C         141.6178  145.4597  154.9065 C.3     1  UNL1        0.0898
     15 C         139.9934  144.1172  156.4262 C.3     1  UNL1        0.1237
     16 C         139.5270  143.7163  157.7943 C.3     1  UNL1        0.2194
     17 N         139.9374  143.4329  166.8124 N.pl3   1  UNL1       -0.1848
     18 H         139.6523  144.2078  167.3487 H       1  UNL1        0.2530
     19 C         140.7717  140.6020  171.0891 C.3     1  UNL1        0.0546
     20 C         140.9803  140.8306  169.6213 C.ar    1  UNL1        0.0891
     21 N         140.3545  142.0175  168.9508 N.ar    1  UNL1       -0.2185
     22 C         140.5632  142.2461  167.4830 C.ar    1  UNL1        0.1931
     23 C         141.3976  141.2878  166.6858 C.ar    1  UNL1        0.0496
     24 C         142.0233  140.1008  167.3565 C.ar    1  UNL1        0.0103
     25 C         141.8147  139.8723  168.8242 C.ar    1  UNL1        0.1498
     26 F         142.4405  138.6854  169.4949 F       1  UNL1       -0.2033
     27 C         142.8577  139.1425  166.5594 C.3     1  UNL1        0.0247
     28 C         143.2457  138.5450  165.2394 C.3     1  UNL1        0.0048
     29 C         143.9149  138.0802  166.4988 C.3     1  UNL1        0.0048
@<TRIPOS>BOND
     1    19    20    1
     2    20    21   ar
     3    21    22   ar
     4    22    17    1
     5    17     1    1
     6     1     2    2
     7     2     3    1
     8     3     4    2
     9     4     5    1
    10     5     6    2
    11     6    10    1
    12    10    11    1
    13    11    12    1
    14    12    13    1
    15    13    14    1
    16    13    15    1
    17    15    16    1
    18     6     7    1
    19     7     8    1
    20     8     9    2
    21    22    23   ar
    22    23    24   ar
    23    24    27    1
    24    27    28    1
    25    28    29    1
    26    24    25   ar
    27    25    26    1
    28    25    20   ar
    29     9     1    1
    30    29    27    1
    31     8     3    1
    32    16    10    1
    33    17    18    1
@<TRIPOS>MOLECULE
*****
 29 33 0 0 0
SMALL
GASTEIGER

@<TRIPOS>ATOM
      1 C         139.3512  140.1420  158.6706 C.cat   1  UNL1        0.4253
      2 N         140.7980  139.9984  159.0394 N.2     1  UNL1       -0.0636
      3 C         141.3549  138.8278  158.2847 C.2     1  UNL1        0.2354
      4 C         142.7236  138.2151  158.2502 C.2     1  UNL1        0.2748
      5 N         142.9896  137.0223  157.3804 N.2     1  UNL1       -0.0370
      6 C         141.8869  136.4424  156.5451 C.2     1  UNL1        0.3081
      7 C         140.5182  137.0551  156.5796 C.3     1  UNL1        0.1842
      8 C         140.2522  138.2478  157.4494 C.2     1  UNL1        0.1862
      9 N         139.0139  139.0601  157.6879 N.2     1  UNL1       -0.0710
     10 N         142.1529  135.2496  155.6753 N.pl3   1  UNL1       -0.1910
     11 C         142.7482  134.0069  156.2680 C.3     1  UNL1        0.2194
     12 C         143.0143  132.8141  155.3982 C.3     1  UNL1        0.1237
     13 N         142.6850  132.8641  153.9356 N.3     1  UNL1       -0.2645
     14 C         142.9510  131.6714  153.0658 C.3     1  UNL1        0.0898
     15 C         142.0897  134.1068  153.3429 C.3     1  UNL1        0.1237
     16 C         141.8237  135.2995  154.2127 C.3     1  UNL1        0.2194
     17 N         138.4074  141.1844  159.1927 N.pl3   1  UNL1       -0.1848
     18 H         137.8552  141.7063  158.5667 H       1  UNL1        0.2530
     19 C         137.6871  144.4513  163.1687 C.3     1  UNL1        0.0546
     20 C         137.9449  143.0652  162.6566 C.ar    1  UNL1        0.0891
     21 N         138.0473  142.8179  161.1807 N.ar    1  UNL1       -0.2185
     22 C         138.3051  141.4317  160.6686 C.ar    1  UNL1        0.1931
     23 C         138.4605  140.2929  161.6324 C.ar    1  UNL1        0.0496
     24 C         138.3581  140.5403  163.1084 C.ar    1  UNL1        0.0103
     25 C         138.1003  141.9264  163.6204 C.ar    1  UNL1        0.1498
     26 F         137.9980  142.1738  165.0964 F       1  UNL1       -0.2033
     27 C         138.5136  139.4015  164.0723 C.3     1  UNL1        0.0247
     28 C         138.4392  138.8639  165.4706 C.3     1  UNL1        0.0048
     29 C         138.8571  137.9668  164.3433 C.3     1  UNL1        0.0048
@<TRIPOS>BOND
     1    19    20    1
     2    20    21   ar
     3    21    22   ar
     4    22    17    1
     5    17     1    1
     6     1     2    2
     7     2     3    1
     8     3     4    2
     9     4     5    1
    10     5     6    2
    11     6    10    1
    12    10    11    1
    13    11    12    1
    14    12    13    1
    15    13    14    1
    16    13    15    1
    17    15    16    1
    18     6     7    1
    19     7     8    1
    20     8     9    2
    21    22    23   ar
    22    23    24   ar
    23    24    27    1
    24    27    28    1
    25    28    29    1
    26    24    25   ar
    27    25    26    1
    28    25    20   ar
    29     9     1    1
    30    29    27    1
    31     8     3    1
    32    16    10    1
    33    17    18    1
@<TRIPOS>MOLECULE
*****
 29 33 0 0 0
SMALL
GASTEIGER

@<TRIPOS>ATOM
      1 C         142.4399  138.8317  164.7727 C.cat   1  UNL1        0.4253
      2 N         143.6587  139.2553  164.0077 N.2     1  UNL1       -0.0636
      3 C         143.4082  138.9901  162.5527 C.2     1  UNL1        0.2354
      4 C         144.2534  139.2077  161.3328 C.2     1  UNL1        0.2748
      5 N         143.7249  138.8378  159.9786 N.2     1  UNL1       -0.0370
      6 C         142.3513  138.2504  159.8443 C.2     1  UNL1        0.3081
      7 C         141.5061  138.0328  161.0642 C.3     1  UNL1        0.1842
      8 C         142.0345  138.4027  162.4184 C.2     1  UNL1        0.1862
      9 N         141.4362  138.3048  163.7904 N.2     1  UNL1       -0.0710
     10 N         141.8229  137.8805  158.4900 N.pl3   1  UNL1       -0.1910
     11 C         140.4269  138.2654  158.0989 C.3     1  UNL1        0.2194
     12 C         139.8985  137.8956  156.7446 C.3     1  UNL1        0.1237
     13 N         140.7661  137.1407  155.7815 N.3     1  UNL1       -0.2645
     14 C         140.2377  136.7708  154.4273 C.3     1  UNL1        0.0898
     15 C         142.1621  136.7557  156.1728 C.3     1  UNL1        0.1237
     16 C         142.6905  137.1256  157.5270 C.3     1  UNL1        0.2194
     17 N         142.2571  138.9197  166.2589 N.pl3   1  UNL1       -0.1848
     18 H         142.5022  138.1569  166.8310 H       1  UNL1        0.2530
     19 C         141.2423  141.8013  170.4621 C.3     1  UNL1        0.0546
     20 C         141.1933  141.6106  168.9750 C.ar    1  UNL1        0.0891
     21 N         141.7497  140.3605  168.3605 N.ar    1  UNL1       -0.2185
     22 C         141.7007  140.1698  166.8734 C.ar    1  UNL1        0.1931
     23 C         141.0955  141.2292  166.0009 C.ar    1  UNL1        0.0496
     24 C         140.5391  142.4794  166.6155 C.ar    1  UNL1        0.0103
     25 C         140.5881  142.6701  168.1025 C.ar    1  UNL1        0.1498
     26 F         140.0317  143.9202  168.7171 F       1  UNL1       -0.2033
     27 C         139.9338  143.5389  165.7431 C.3     1  UNL1        0.0247
     28 C         139.9460  144.3415  164.4760 C.3     1  UNL1        0.0048
     29 C         138.8733  144.5712  165.4990 C.3     1  UNL1        0.0048
@<TRIPOS>BOND
     1    19    20    1
     2    20    21   ar
     3    21    22   ar
     4    22    17    1
     5    17     1    1
     6     1     2    2
     7     2     3    1
     8     3     4    2
     9     4     5    1
    10     5     6    2
    11     6    10    1
    12    10    11    1
    13    11    12    1
    14    12    13    1
    15    13    14    1
    16    13    15    1
    17    15    16    1
    18     6     7    1
    19     7     8    1
    20     8     9    2
    21    22    23   ar
    22    23    24   ar
    23    24    27    1
    24    27    28    1
    25    28    29    1
    26    24    25   ar
    27    25    26    1
    28    25    20   ar
    29     9     1    1
    30    29    27    1
    31     8     3    1
    32    16    10    1
    33    17    18    1
@<TRIPOS>MOLECULE
*****
 29 33 0 0 0
SMALL
GASTEIGER

@<TRIPOS>ATOM
      1 C         140.5513  141.5219  162.2156 C.cat   1  UNL1        0.4253
      2 N         139.3007  141.4760  161.3887 N.2     1  UNL1       -0.0636
      3 C         139.5303  140.5228  160.2534 C.2     1  UNL1        0.2354
      4 C         138.6514  140.0793  159.1218 C.2     1  UNL1        0.2748
      5 N         139.1650  139.0927  158.1155 N.2     1  UNL1       -0.0370
      6 C         140.5575  138.5495  158.2408 C.2     1  UNL1        0.3081
      7 C         141.4365  138.9929  159.3725 C.3     1  UNL1        0.1842
      8 C         140.9229  139.9796  160.3788 C.2     1  UNL1        0.1862
      9 N         141.5539  140.5971  161.5915 N.2     1  UNL1       -0.0710
     10 N         141.0711  137.5627  157.2345 N.pl3   1  UNL1       -0.1910
     11 C         140.1671  137.0600  156.1482 C.3     1  UNL1        0.2194
     12 C         140.6807  136.0733  155.1418 C.3     1  UNL1        0.1237
     13 N         142.0983  135.5893  155.2218 N.3     1  UNL1       -0.2645
     14 C         142.6118  134.6027  154.2155 C.3     1  UNL1        0.0898
     15 C         143.0022  136.0921  156.3082 C.3     1  UNL1        0.1237
     16 C         142.4886  137.0788  157.3145 C.3     1  UNL1        0.2194
     17 N         140.7622  142.3476  163.4500 N.pl3   1  UNL1       -0.1848
     18 H         141.1524  143.2487  163.3787 H       1  UNL1        0.2530
     19 C         138.4316  138.6999  166.3246 C.3     1  UNL1        0.0546
     20 C         139.2135  139.9766  166.2302 C.ar    1  UNL1        0.0891
     21 N         139.5969  140.5238  164.8873 N.ar    1  UNL1       -0.2185
     22 C         140.3788  141.8004  164.7930 C.ar    1  UNL1        0.1931
     23 C         140.7773  142.5298  166.0416 C.ar    1  UNL1        0.0496
     24 C         140.3938  141.9826  167.3846 C.ar    1  UNL1        0.0103
     25 C         139.6120  140.7060  167.4789 C.ar    1  UNL1        0.1498
     26 F         139.2285  140.1588  168.8219 F       1  UNL1       -0.2033
     27 C         140.7923  142.7120  168.6333 C.3     1  UNL1        0.0247
     28 C         140.5141  143.7585  169.6712 C.3     1  UNL1        0.0048
     29 C         141.7607  142.9288  169.7581 C.3     1  UNL1        0.0048
@<TRIPOS>BOND
     1    19    20    1
     2    20    21   ar
     3    21    22   ar
     4    22    17    1
     5    17     1    1
     6     1     2    2
     7     2     3    1
     8     3     4    2
     9     4     5    1
    10     5     6    2
    11     6    10    1
    12    10    11    1
    13    11    12    1
    14    12    13    1
    15    13    14    1
    16    13    15    1
    17    15    16    1
    18     6     7    1
    19     7     8    1
    20     8     9    2
    21    22    23   ar
    22    23    24   ar
    23    24    27    1
    24    27    28    1
    25    28    29    1
    26    24    25   ar
    27    25    26    1
    28    25    20   ar
    29     9     1    1
    30    29    27    1
    31     8     3    1
    32    16    10    1
    33    17    18    1
@<TRIPOS>MOLECULE
*****
 29 33 0 0 0
SMALL
GASTEIGER

@<TRIPOS>ATOM
      1 C         142.6224  137.9828  157.8657 C.cat   1  UNL1        0.4253
      2 N         141.1645  138.3238  157.7755 N.2     1  UNL1       -0.0636
      3 C         140.6680  138.6069  159.1623 C.2     1  UNL1        0.2354
      4 C         139.3165  138.9944  159.6849 C.2     1  UNL1        0.2748
      5 N         139.1160  139.2157  161.1549 N.2     1  UNL1       -0.0370
      6 C         140.2671  139.0496  162.1022 C.2     1  UNL1        0.3081
      7 C         141.6186  138.6621  161.5796 C.3     1  UNL1        0.1842
      8 C         141.8190  138.4407  160.1097 C.2     1  UNL1        0.1862
      9 N         143.0269  138.0550  159.3083 N.2     1  UNL1       -0.0710
     10 N         140.0665  139.2710  163.5722 N.pl3   1  UNL1       -0.1910
     11 C         141.1469  139.9176  164.3875 C.3     1  UNL1        0.2194
     12 C         140.9464  140.1390  165.8575 C.3     1  UNL1        0.1237
     13 N         139.6655  139.7138  166.5122 N.3     1  UNL1       -0.2645
     14 C         139.4649  139.9351  167.9821 C.3     1  UNL1        0.0898
     15 C         138.5851  139.0672  165.6968 C.3     1  UNL1        0.1237
     16 C         138.7857  138.8458  164.2268 C.3     1  UNL1        0.2194
     17 N         143.5185  137.6312  156.7152 N.pl3   1  UNL1       -0.1848
     18 H         144.2474  138.2398  156.4552 H       1  UNL1        0.2530
     19 C         141.5321  135.0877  152.6428 C.3     1  UNL1        0.0546
     20 C         142.3108  135.0807  153.9248 C.ar    1  UNL1        0.0891
     21 N         142.5253  136.3595  154.6790 N.ar    1  UNL1       -0.2185
     22 C         143.3040  136.3525  155.9610 C.ar    1  UNL1        0.1931
     23 C         143.8683  135.0668  156.4888 C.ar    1  UNL1        0.0496
     24 C         143.6538  133.7881  155.7346 C.ar    1  UNL1        0.0103
     25 C         142.8751  133.7950  154.4526 C.ar    1  UNL1        0.1498
     26 F         142.6606  132.5163  153.6984 F       1  UNL1       -0.2033
     27 C         144.2181  132.5024  156.2624 C.3     1  UNL1        0.0247
     28 C         144.5057  131.5860  157.4146 C.3     1  UNL1        0.0048
     29 C         144.9079  131.1918  156.0243 C.3     1  UNL1        0.0048
@<TRIPOS>BOND
     1    19    20    1
     2    20    21   ar
     3    21    22   ar
     4    22    17    1
     5    17     1    1
     6     1     2    2
     7     2     3    1
     8     3     4    2
     9     4     5    1
    10     5     6    2
    11     6    10    1
    12    10    11    1
    13    11    12    1
    14    12    13    1
    15    13    14    1
    16    13    15    1
    17    15    16    1
    18     6     7    1
    19     7     8    1
    20     8     9    2
    21    22    23   ar
    22    23    24   ar
    23    24    27    1
    24    27    28    1
    25    28    29    1
    26    24    25   ar
    27    25    26    1
    28    25    20   ar
    29     9     1    1
    30    29    27    1
    31     8     3    1
    32    16    10    1
    33    17    18    1
@<TRIPOS>MOLECULE
*****
 29 33 0 0 0
SMALL
GASTEIGER

@<TRIPOS>ATOM
      1 C         138.4814  139.9096  163.4710 C.cat   1  UNL1        0.4253
      2 N         138.6724  141.3698  163.1859 N.2     1  UNL1       -0.0636
      3 C         138.5126  141.5785  161.7091 C.2     1  UNL1        0.2354
      4 C         138.5936  142.8087  160.8548 C.2     1  UNL1        0.2748
      5 N         138.3848  142.7078  159.3728 N.2     1  UNL1       -0.0370
      6 C         138.0950  141.3765  158.7452 C.2     1  UNL1        0.3081
      7 C         138.0141  140.1463  159.5996 C.3     1  UNL1        0.1842
      8 C         138.2229  140.2473  161.0815 C.2     1  UNL1        0.1862
      9 N         138.2036  139.2158  162.1704 N.2     1  UNL1       -0.0710
     10 N         137.8862  141.2756  157.2632 N.pl3   1  UNL1       -0.1910
     11 C         137.0713  142.3123  156.5483 C.3     1  UNL1        0.2194
     12 C         136.8625  142.2113  155.0663 C.3     1  UNL1        0.1237
     13 N         137.4686  141.0737  154.2993 N.3     1  UNL1       -0.2645
     14 C         137.2599  140.9727  152.8174 C.3     1  UNL1        0.0898
     15 C         138.2836  140.0370  155.0143 C.3     1  UNL1        0.1237
     16 C         138.4924  140.1379  156.4962 C.3     1  UNL1        0.2194
     17 N         138.5552  139.2576  164.8199 N.pl3   1  UNL1       -0.1848
     18 H         137.8638  138.6122  165.0932 H       1  UNL1        0.2530
     19 C         143.4526  138.5300  166.3968 C.3     1  UNL1        0.0546
     20 C         142.1311  139.2251  166.5408 C.ar    1  UNL1        0.0891
     21 N         141.0039  138.8938  165.6084 N.ar    1  UNL1       -0.2185
     22 C         139.6824  139.5889  165.7524 C.ar    1  UNL1        0.1931
     23 C         139.4883  140.6152  166.8289 C.ar    1  UNL1        0.0496
     24 C         140.6156  140.9465  167.7614 C.ar    1  UNL1        0.0103
     25 C         141.9370  140.2514  167.6173 C.ar    1  UNL1        0.1498
     26 F         143.0643  140.5827  168.5498 F       1  UNL1       -0.2033
     27 C         140.4214  141.9728  168.8379 C.3     1  UNL1        0.0247
     28 C         140.4299  143.4049  169.2841 C.3     1  UNL1        0.0048
     29 C         140.0767  142.3185  170.2562 C.3     1  UNL1        0.0048
@<TRIPOS>BOND
     1    19    20    1
     2    20    21   ar
     3    21    22   ar
     4    22    17    1
     5    17     1    1
     6     1     2    2
     7     2     3    1
     8     3     4    2
     9     4     5    1
    10     5     6    2
    11     6    10    1
    12    10    11    1
    13    11    12    1
    14    12    13    1
    15    13    14    1
    16    13    15    1
    17    15    16    1
    18     6     7    1
    19     7     8    1
    20     8     9    2
    21    22    23   ar
    22    23    24   ar
    23    24    27    1
    24    27    28    1
    25    28    29    1
    26    24    25   ar
    27    25    26    1
    28    25    20   ar
    29     9     1    1
    30    29    27    1
    31     8     3    1
    32    16    10    1
    33    17    18    1
