@<TRIPOS>MOLECULE
*****
 37 40 0 0 0
SMALL
GASTEIGER

@<TRIPOS>ATOM
      1 O         139.4891  144.1830  159.7313 O.2     1  UNL1       -0.2707
      2 C         140.3631  145.0630  160.5749 C.2     1  UNL1        0.2707
      3 N         141.8376  144.7996  160.6556 N.am    1  UNL1       -0.2809
      4 H         142.4112  145.3771  161.2093 H       1  UNL1        0.1550
      5 C         142.4380  143.6562  159.8926 C.ar    1  UNL1        0.0506
      6 C         142.9736  143.8769  158.5089 C.ar    1  UNL1        0.0155
      7 C         143.5740  142.7335  157.7459 C.ar    1  UNL1        0.0128
      8 C         143.6388  141.3694  158.3666 C.ar    1  UNL1        0.0621
      9 CL        144.2392  140.2261  157.6036 Cl      1  UNL1       -0.0821
     10 C         143.1032  141.1488  159.7502 C.ar    1  UNL1        0.0651
     11 C         142.5028  142.2921  160.5132 C.ar    1  UNL1        0.0200
     12 C         143.1680  139.7847  160.3708 C.2     1  UNL1        0.2467
     13 O         144.4387  138.9903  160.3048 O.2     1  UNL1       -0.2701
     14 N         141.9621  139.2151  161.0574 N.am    1  UNL1       -0.3008
     15 H         141.1282  139.7365  161.1007 H       1  UNL1        0.1497
     16 C         142.0270  137.8510  161.6780 C.3     1  UNL1        0.0896
     17 C         141.1039  137.4954  162.8056 C.3     1  UNL1        0.0196
     18 C         139.7334  137.5066  163.4153 C.3     1  UNL1        0.0017
     19 C         140.8755  136.8683  164.1489 C.3     1  UNL1        0.0017
     20 C         139.7626  146.2064  161.3379 C.3     1  UNL1        0.2897
     21 O         138.8447  145.9372  162.4933 O.3     1  UNL1       -0.4656
     22 C         138.9367  144.6380  163.2375 C.ar    1  UNL1        0.1393
     23 C         139.9360  144.4768  164.3444 C.ar    1  UNL1        0.0370
     24 C         140.0279  143.1777  165.0885 C.ar    1  UNL1        0.0063
     25 C         139.1205  142.0397  164.7256 C.ar    1  UNL1        0.0392
     26 C         138.1212  142.2009  163.6186 C.ar    1  UNL1        0.0063
     27 C         138.0293  143.5000  162.8746 C.ar    1  UNL1        0.0370
     28 C         139.2125  140.7405  165.4697 C.2     1  UNL1        0.1961
     29 O         137.9866  139.8975  165.6612 O.2     1  UNL1       -0.2866
     30 C         140.5302  140.2843  166.0223 C.ar    1  UNL1        0.0460
     31 C         141.6960  140.0716  165.1026 C.ar    1  UNL1        0.0151
     32 C         143.0138  139.6154  165.6552 C.ar    1  UNL1        0.0578
     33 CL        144.1795  139.4027  164.7356 Cl      1  UNL1       -0.0822
     34 C         143.1658  139.3719  167.1275 C.ar    1  UNL1        0.0119
     35 C         142.0000  139.5846  168.0472 C.ar    1  UNL1        0.0077
     36 C         140.6823  140.0408  167.4946 C.ar    1  UNL1        0.0377
     37 BR        139.5165  140.2534  168.4143 Br      1  UNL1       -0.0489
@<TRIPOS>BOND
     1     1     2    2
     2     2    20    1
     3    20    21    1
     4    21    22    1
     5    22    23   ar
     6    23    24   ar
     7    24    25   ar
     8    25    28    1
     9    28    29    2
    10    28    30    1
    11    30    31   ar
    12    31    32   ar
    13    32    33    1
    14    32    34   ar
    15    34    35   ar
    16    35    36   ar
    17    36    37    1
    18    25    26   ar
    19    26    27   ar
    20     2     3   am
    21     3     5    1
    22     5     6   ar
    23     6     7   ar
    24     7     8   ar
    25     8     9    1
    26     8    10   ar
    27    10    12    1
    28    12    13    2
    29    12    14   am
    30    14    16    1
    31    16    17    1
    32    17    18    1
    33    18    19    1
    34    10    11   ar
    35    27    22   ar
    36    11     5   ar
    37    36    30   ar
    38    19    17    1
    39     3     4    1
    40    14    15    1
@<TRIPOS>MOLECULE
*****
 37 40 0 0 0
SMALL
GASTEIGER

@<TRIPOS>ATOM
      1 O         139.3369  143.9120  160.2270 O.2     1  UNL1       -0.2707
      2 C         140.3672  144.9333  160.6084 C.2     1  UNL1        0.2707
      3 N         141.8078  144.7142  160.2530 N.am    1  UNL1       -0.2809
      4 H         142.4841  145.3845  160.5034 H       1  UNL1        0.1550
      5 C         142.2182  143.4738  159.5162 C.ar    1  UNL1        0.0506
      6 C         142.4710  143.5282  158.0386 C.ar    1  UNL1        0.0155
      7 C         142.8814  142.2879  157.3017 C.ar    1  UNL1        0.0128
      8 C         143.0390  140.9930  158.0424 C.ar    1  UNL1        0.0621
      9 CL        143.4494  139.7527  157.3055 Cl      1  UNL1       -0.0821
     10 C         142.7863  140.9386  159.5199 C.ar    1  UNL1        0.0651
     11 C         142.3759  142.1790  160.2568 C.ar    1  UNL1        0.0200
     12 C         142.9439  139.6437  160.2605 C.2     1  UNL1        0.2467
     13 O         144.2816  138.9671  160.3119 O.2     1  UNL1       -0.2701
     14 N         141.7637  139.0256  160.9499 N.am    1  UNL1       -0.3008
     15 H         140.8857  139.4697  160.9162 H       1  UNL1        0.1497
     16 C         141.9214  137.7307  161.6906 C.3     1  UNL1        0.0896
     17 C         141.1991  137.5158  162.9875 C.3     1  UNL1        0.0196
     18 C         139.9646  137.6630  163.8268 C.3     1  UNL1        0.0017
     19 C         141.1825  136.9965  164.3946 C.3     1  UNL1        0.0017
     20 C         139.9567  146.1737  161.3453 C.3     1  UNL1        0.2897
     21 O         140.4092  146.3907  162.7589 O.3     1  UNL1       -0.4656
     22 C         140.7637  145.2159  163.6216 C.ar    1  UNL1        0.1393
     23 C         139.6855  144.4622  164.3423 C.ar    1  UNL1        0.0370
     24 C         140.0400  143.2875  165.2050 C.ar    1  UNL1        0.0063
     25 C         141.4727  142.8664  165.3470 C.ar    1  UNL1        0.0392
     26 C         142.5508  143.6201  164.6263 C.ar    1  UNL1        0.0063
     27 C         142.1963  144.7948  163.7636 C.ar    1  UNL1        0.0370
     28 C         141.8271  141.6916  166.2097 C.2     1  UNL1        0.1961
     29 O         143.1997  141.0916  166.1327 O.2     1  UNL1       -0.2866
     30 C         140.8090  141.1169  167.1494 C.ar    1  UNL1        0.0460
     31 C         139.8117  140.1129  166.6520 C.ar    1  UNL1        0.0151
     32 C         138.7935  139.5381  167.5918 C.ar    1  UNL1        0.0578
     33 CL        137.7962  138.5342  167.0944 Cl      1  UNL1       -0.0822
     34 C         138.7727  139.9674  169.0289 C.ar    1  UNL1        0.0119
     35 C         139.7701  140.9713  169.5263 C.ar    1  UNL1        0.0077
     36 C         140.7882  141.5461  168.5866 C.ar    1  UNL1        0.0377
     37 BR        141.7855  142.5500  169.0840 Br      1  UNL1       -0.0489
@<TRIPOS>BOND
     1     1     2    2
     2     2    20    1
     3    20    21    1
     4    21    22    1
     5    22    23   ar
     6    23    24   ar
     7    24    25   ar
     8    25    28    1
     9    28    29    2
    10    28    30    1
    11    30    31   ar
    12    31    32   ar
    13    32    33    1
    14    32    34   ar
    15    34    35   ar
    16    35    36   ar
    17    36    37    1
    18    25    26   ar
    19    26    27   ar
    20     2     3   am
    21     3     5    1
    22     5     6   ar
    23     6     7   ar
    24     7     8   ar
    25     8     9    1
    26     8    10   ar
    27    10    12    1
    28    12    13    2
    29    12    14   am
    30    14    16    1
    31    16    17    1
    32    17    18    1
    33    18    19    1
    34    10    11   ar
    35    27    22   ar
    36    11     5   ar
    37    36    30   ar
    38    19    17    1
    39     3     4    1
    40    14    15    1
@<TRIPOS>MOLECULE
*****
 37 40 0 0 0
SMALL
GASTEIGER

@<TRIPOS>ATOM
      1 O         141.3141  144.3363  159.5509 O.2     1  UNL1       -0.2707
      2 C         140.0269  144.6916  160.2340 C.2     1  UNL1        0.2707
      3 N         138.9704  143.6458  160.4342 N.am    1  UNL1       -0.2809
      4 H         138.1256  143.8790  160.8826 H       1  UNL1        0.1550
      5 C         139.2012  142.2446  159.9511 C.ar    1  UNL1        0.0506
      6 C         138.5225  141.7597  158.7044 C.ar    1  UNL1        0.0155
      7 C         138.7532  140.3585  158.2214 C.ar    1  UNL1        0.0128
      8 C         139.6628  139.4422  158.9850 C.ar    1  UNL1        0.0621
      9 CL        139.8935  138.0410  158.5019 Cl      1  UNL1       -0.0821
     10 C         140.3415  139.9270  160.2316 C.ar    1  UNL1        0.0651
     11 C         140.1107  141.3283  160.7147 C.ar    1  UNL1        0.0200
     12 C         141.2510  139.0107  160.9952 C.2     1  UNL1        0.2467
     13 O         140.7002  137.7731  161.6394 O.2     1  UNL1       -0.2701
     14 N         142.7114  139.3320  161.1146 N.am    1  UNL1       -0.3008
     15 H         143.0729  140.1443  160.6918 H       1  UNL1        0.1497
     16 C         143.6209  138.4156  161.8782 C.3     1  UNL1        0.0896
     17 C         144.0469  138.7719  163.2716 C.3     1  UNL1        0.0196
     18 C         143.7739  138.8000  164.7463 C.3     1  UNL1        0.0017
     19 C         145.0577  139.3608  164.2104 C.3     1  UNL1        0.0017
     20 C         139.7961  146.0929  160.7171 C.3     1  UNL1        0.2897
     21 O         139.7297  146.3777  162.1883 O.3     1  UNL1       -0.4656
     22 C         140.2866  145.3891  163.1695 C.ar    1  UNL1        0.1393
     23 C         139.3743  144.7027  164.1423 C.ar    1  UNL1        0.0370
     24 C         139.9313  143.7142  165.1235 C.ar    1  UNL1        0.0063
     25 C         141.4006  143.4122  165.1318 C.ar    1  UNL1        0.0392
     26 C         142.3129  144.0987  164.1590 C.ar    1  UNL1        0.0063
     27 C         141.7559  145.0872  163.1778 C.ar    1  UNL1        0.0370
     28 C         141.9575  142.4237  166.1130 C.2     1  UNL1        0.1961
     29 O         143.3936  142.0010  166.0185 O.2     1  UNL1       -0.2866
     30 C         141.0784  141.8580  167.1886 C.ar    1  UNL1        0.0460
     31 C         140.9452  142.5718  168.5011 C.ar    1  UNL1        0.0151
     32 C         140.0660  142.0060  169.5768 C.ar    1  UNL1        0.0578
     33 CL        139.9328  142.7199  170.8893 Cl      1  UNL1       -0.0822
     34 C         139.3201  140.7264  169.3399 C.ar    1  UNL1        0.0119
     35 C         139.4533  140.0125  168.0274 C.ar    1  UNL1        0.0077
     36 C         140.3325  140.5783  166.9518 C.ar    1  UNL1        0.0377
     37 BR        140.4657  139.8644  165.6393 Br      1  UNL1       -0.0489
@<TRIPOS>BOND
     1     1     2    2
     2     2    20    1
     3    20    21    1
     4    21    22    1
     5    22    23   ar
     6    23    24   ar
     7    24    25   ar
     8    25    28    1
     9    28    29    2
    10    28    30    1
    11    30    31   ar
    12    31    32   ar
    13    32    33    1
    14    32    34   ar
    15    34    35   ar
    16    35    36   ar
    17    36    37    1
    18    25    26   ar
    19    26    27   ar
    20     2     3   am
    21     3     5    1
    22     5     6   ar
    23     6     7   ar
    24     7     8   ar
    25     8     9    1
    26     8    10   ar
    27    10    12    1
    28    12    13    2
    29    12    14   am
    30    14    16    1
    31    16    17    1
    32    17    18    1
    33    18    19    1
    34    10    11   ar
    35    27    22   ar
    36    11     5   ar
    37    36    30   ar
    38    19    17    1
    39     3     4    1
    40    14    15    1
@<TRIPOS>MOLECULE
*****
 37 40 0 0 0
SMALL
GASTEIGER

@<TRIPOS>ATOM
      1 O         139.1622  143.5773  159.0564 O.2     1  UNL1       -0.2707
      2 C         140.2858  144.3579  159.6713 C.2     1  UNL1        0.2707
      3 N         141.5943  143.6854  159.9635 N.am    1  UNL1       -0.2809
      4 H         142.3318  144.1977  160.3670 H       1  UNL1        0.1550
      5 C         141.7792  142.2323  159.6407 C.ar    1  UNL1        0.0506
      6 C         142.5346  141.8276  158.4095 C.ar    1  UNL1        0.0155
      7 C         142.7195  140.3745  158.0867 C.ar    1  UNL1        0.0128
      8 C         142.1490  139.3260  158.9951 C.ar    1  UNL1        0.0621
      9 CL        142.3339  137.8728  158.6724 Cl      1  UNL1       -0.0821
     10 C         141.3937  139.7305  160.2263 C.ar    1  UNL1        0.0651
     11 C         141.2088  141.1837  160.5491 C.ar    1  UNL1        0.0200
     12 C         140.8232  138.6820  161.1346 C.2     1  UNL1        0.2467
     13 O         139.5463  137.9859  160.7677 O.2     1  UNL1       -0.2701
     14 N         141.5299  138.3296  162.4100 N.am    1  UNL1       -0.3008
     15 H         142.3680  138.7865  162.6509 H       1  UNL1        0.1497
     16 C         140.9594  137.2810  163.3184 C.3     1  UNL1        0.0896
     17 C         139.7919  137.6083  164.2015 C.3     1  UNL1        0.0196
     18 C         138.7290  138.5684  164.6469 C.3     1  UNL1        0.0017
     19 C         138.8326  137.2151  165.2855 C.3     1  UNL1        0.0017
     20 C         140.1009  145.8111  159.9940 C.3     1  UNL1        0.2897
     21 O         139.6448  146.2234  161.3622 O.3     1  UNL1       -0.4656
     22 C         139.9622  145.3632  162.5495 C.ar    1  UNL1        0.1393
     23 C         141.3473  145.3607  163.1251 C.ar    1  UNL1        0.0370
     24 C         141.6646  144.5006  164.3122 C.ar    1  UNL1        0.0063
     25 C         140.5968  143.6429  164.9238 C.ar    1  UNL1        0.0392
     26 C         139.2116  143.6453  164.3482 C.ar    1  UNL1        0.0063
     27 C         138.8944  144.5055  163.1610 C.ar    1  UNL1        0.0370
     28 C         140.9141  142.7827  166.1110 C.2     1  UNL1        0.1961
     29 O         140.3986  143.1584  167.4686 O.2     1  UNL1       -0.2866
     30 C         141.7470  141.5469  165.9406 C.ar    1  UNL1        0.0460
     31 C         142.9512  141.5714  165.0467 C.ar    1  UNL1        0.0151
     32 C         143.7841  140.3355  164.8763 C.ar    1  UNL1        0.0578
     33 CL        144.9884  140.3600  163.9824 Cl      1  UNL1       -0.0822
     34 C         143.4127  139.0751  165.5998 C.ar    1  UNL1        0.0119
     35 C         142.2084  139.0506  166.4938 C.ar    1  UNL1        0.0077
     36 C         141.3756  140.2864  166.6642 C.ar    1  UNL1        0.0377
     37 BR        140.1713  140.2619  167.5581 Br      1  UNL1       -0.0489
@<TRIPOS>BOND
     1     1     2    2
     2     2    20    1
     3    20    21    1
     4    21    22    1
     5    22    23   ar
     6    23    24   ar
     7    24    25   ar
     8    25    28    1
     9    28    29    2
    10    28    30    1
    11    30    31   ar
    12    31    32   ar
    13    32    33    1
    14    32    34   ar
    15    34    35   ar
    16    35    36   ar
    17    36    37    1
    18    25    26   ar
    19    26    27   ar
    20     2     3   am
    21     3     5    1
    22     5     6   ar
    23     6     7   ar
    24     7     8   ar
    25     8     9    1
    26     8    10   ar
    27    10    12    1
    28    12    13    2
    29    12    14   am
    30    14    16    1
    31    16    17    1
    32    17    18    1
    33    18    19    1
    34    10    11   ar
    35    27    22   ar
    36    11     5   ar
    37    36    30   ar
    38    19    17    1
    39     3     4    1
    40    14    15    1
@<TRIPOS>MOLECULE
*****
 37 40 0 0 0
SMALL
GASTEIGER

@<TRIPOS>ATOM
      1 O         139.8177  144.7973  158.8302 O.2     1  UNL1       -0.2707
      2 C         141.2798  145.1092  158.9529 C.2     1  UNL1        0.2707
      3 N         141.9298  145.1375  160.3044 N.am    1  UNL1       -0.2809
      4 H         142.8894  145.3422  160.3849 H       1  UNL1        0.1550
      5 C         141.1178  144.8539  161.5332 C.ar    1  UNL1        0.0506
      6 C         139.9935  145.7698  161.9171 C.ar    1  UNL1        0.0155
      7 C         139.1815  145.4862  163.1460 C.ar    1  UNL1        0.0128
      8 C         139.4936  144.2868  163.9909 C.ar    1  UNL1        0.0621
      9 CL        138.6815  144.0032  165.2198 Cl      1  UNL1       -0.0821
     10 C         140.6177  143.3710  163.6071 C.ar    1  UNL1        0.0651
     11 C         141.4299  143.6545  162.3782 C.ar    1  UNL1        0.0200
     12 C         140.9298  142.1715  164.4520 C.2     1  UNL1        0.2467
     13 O         140.1200  140.9178  164.3029 O.2     1  UNL1       -0.2701
     14 N         142.0518  142.2259  165.4462 N.am    1  UNL1       -0.3008
     15 H         142.5833  143.0488  165.5441 H       1  UNL1        0.1497
     16 C         142.3639  141.0264  166.2911 C.3     1  UNL1        0.0896
     17 C         143.2359  139.9332  165.7486 C.3     1  UNL1        0.0196
     18 C         143.7300  138.5180  165.8030 C.3     1  UNL1        0.0017
     19 C         144.2523  139.4549  164.7545 C.3     1  UNL1        0.0017
     20 C         142.0919  145.3928  157.7239 C.3     1  UNL1        0.2897
     21 O         142.6368  144.2590  156.9069 O.3     1  UNL1       -0.4656
     22 C         142.5163  142.8494  157.4056 C.ar    1  UNL1        0.1393
     23 C         141.3314  142.0154  157.0178 C.ar    1  UNL1        0.0370
     24 C         141.2110  140.6059  157.5165 C.ar    1  UNL1        0.0063
     25 C         142.2753  140.0304  158.4030 C.ar    1  UNL1        0.0392
     26 C         143.4601  140.8645  158.7909 C.ar    1  UNL1        0.0063
     27 C         143.5806  142.2740  158.2922 C.ar    1  UNL1        0.0370
     28 C         142.1548  138.6209  158.9018 C.2     1  UNL1        0.1961
     29 O         142.7143  137.4886  158.0925 O.2     1  UNL1       -0.2866
     30 C         141.4747  138.3436  160.2097 C.ar    1  UNL1        0.0460
     31 C         139.9791  138.4069  160.3056 C.ar    1  UNL1        0.0151
     32 C         139.2991  138.1296  161.6136 C.ar    1  UNL1        0.0578
     33 CL        137.8035  138.1929  161.7096 Cl      1  UNL1       -0.0822
     34 C         140.1147  137.7891  162.8255 C.ar    1  UNL1        0.0119
     35 C         141.6103  137.7258  162.7296 C.ar    1  UNL1        0.0077
     36 C         142.2903  138.0031  161.4217 C.ar    1  UNL1        0.0377
     37 BR        143.7859  137.9398  161.3257 Br      1  UNL1       -0.0489
@<TRIPOS>BOND
     1     1     2    2
     2     2    20    1
     3    20    21    1
     4    21    22    1
     5    22    23   ar
     6    23    24   ar
     7    24    25   ar
     8    25    28    1
     9    28    29    2
    10    28    30    1
    11    30    31   ar
    12    31    32   ar
    13    32    33    1
    14    32    34   ar
    15    34    35   ar
    16    35    36   ar
    17    36    37    1
    18    25    26   ar
    19    26    27   ar
    20     2     3   am
    21     3     5    1
    22     5     6   ar
    23     6     7   ar
    24     7     8   ar
    25     8     9    1
    26     8    10   ar
    27    10    12    1
    28    12    13    2
    29    12    14   am
    30    14    16    1
    31    16    17    1
    32    17    18    1
    33    18    19    1
    34    10    11   ar
    35    27    22   ar
    36    11     5   ar
    37    36    30   ar
    38    19    17    1
    39     3     4    1
    40    14    15    1
@<TRIPOS>MOLECULE
*****
 37 40 0 0 0
SMALL
GASTEIGER

@<TRIPOS>ATOM
      1 O         140.3608  143.6385  158.9198 O.2     1  UNL1       -0.2707
      2 C         141.7183  144.2357  159.1444 C.2     1  UNL1        0.2707
      3 N         142.0766  144.8003  160.4870 N.am    1  UNL1       -0.2809
      4 H         142.9676  145.1923  160.6344 H       1  UNL1        0.1550
      5 C         141.0773  144.7677  161.6052 C.ar    1  UNL1        0.0506
      6 C         139.9170  145.7185  161.6022 C.ar    1  UNL1        0.0155
      7 C         138.9177  145.6859  162.7203 C.ar    1  UNL1        0.0128
      8 C         139.0786  144.7025  163.8415 C.ar    1  UNL1        0.0621
      9 CL        138.0792  144.6698  164.9596 Cl      1  UNL1       -0.0821
     10 C         140.2387  143.7517  163.8446 C.ar    1  UNL1        0.0651
     11 C         141.2381  143.7843  162.7264 C.ar    1  UNL1        0.0200
     12 C         140.3996  142.7683  164.9657 C.2     1  UNL1        0.2467
     13 O         139.4956  141.5745  165.0517 O.2     1  UNL1       -0.2701
     14 N         141.4645  142.9789  166.0010 N.am    1  UNL1       -0.3008
     15 H         142.0578  143.7625  165.9446 H       1  UNL1        0.1497
     16 C         141.6253  141.9955  167.1222 C.3     1  UNL1        0.0896
     17 C         140.8979  142.2083  168.4166 C.3     1  UNL1        0.0196
     18 C         140.0858  141.6652  169.5548 C.3     1  UNL1        0.0017
     19 C         140.4500  143.1199  169.5204 C.3     1  UNL1        0.0017
     20 C         142.7177  144.2683  158.0261 C.3     1  UNL1        0.2897
     21 O         143.7968  143.2290  157.9541 O.3     1  UNL1       -0.4656
     22 C         143.7506  142.0357  158.8619 C.ar    1  UNL1        0.1393
     23 C         143.1289  140.7558  158.3871 C.ar    1  UNL1        0.0370
     24 C         143.0827  139.5626  159.2949 C.ar    1  UNL1        0.0063
     25 C         143.6582  139.6492  160.6774 C.ar    1  UNL1        0.0392
     26 C         144.2799  140.9291  161.1521 C.ar    1  UNL1        0.0063
     27 C         144.3261  142.1223  160.2444 C.ar    1  UNL1        0.0370
     28 C         143.6120  138.4559  161.5851 C.2     1  UNL1        0.1961
     29 O         144.4736  137.2619  161.2987 O.2     1  UNL1       -0.2866
     30 C         142.7043  138.4567  162.7792 C.ar    1  UNL1        0.0460
     31 C         141.2692  138.0463  162.6306 C.ar    1  UNL1        0.0151
     32 C         140.3614  138.0470  163.8248 C.ar    1  UNL1        0.0578
     33 CL        138.9263  137.6367  163.6762 Cl      1  UNL1       -0.0822
     34 C         140.8887  138.4581  165.1675 C.ar    1  UNL1        0.0119
     35 C         142.3238  138.8685  165.3161 C.ar    1  UNL1        0.0077
     36 C         143.2316  138.8677  164.1220 C.ar    1  UNL1        0.0377
     37 BR        144.6667  139.2781  164.2706 Br      1  UNL1       -0.0489
@<TRIPOS>BOND
     1     1     2    2
     2     2    20    1
     3    20    21    1
     4    21    22    1
     5    22    23   ar
     6    23    24   ar
     7    24    25   ar
     8    25    28    1
     9    28    29    2
    10    28    30    1
    11    30    31   ar
    12    31    32   ar
    13    32    33    1
    14    32    34   ar
    15    34    35   ar
    16    35    36   ar
    17    36    37    1
    18    25    26   ar
    19    26    27   ar
    20     2     3   am
    21     3     5    1
    22     5     6   ar
    23     6     7   ar
    24     7     8   ar
    25     8     9    1
    26     8    10   ar
    27    10    12    1
    28    12    13    2
    29    12    14   am
    30    14    16    1
    31    16    17    1
    32    17    18    1
    33    18    19    1
    34    10    11   ar
    35    27    22   ar
    36    11     5   ar
    37    36    30   ar
    38    19    17    1
    39     3     4    1
    40    14    15    1
@<TRIPOS>MOLECULE
*****
 37 40 0 0 0
SMALL
GASTEIGER

@<TRIPOS>ATOM
      1 O         139.3818  143.9437  160.1502 O.2     1  UNL1       -0.2707
      2 C         140.3372  145.0138  160.5884 C.2     1  UNL1        0.2707
      3 N         141.8026  144.8749  160.3000 N.am    1  UNL1       -0.2809
      4 H         142.4297  145.5772  160.5876 H       1  UNL1        0.1550
      5 C         142.3126  143.6658  159.5734 C.ar    1  UNL1        0.0506
      6 C         142.9451  143.8146  158.2213 C.ar    1  UNL1        0.0155
      7 C         143.4550  142.6055  157.4947 C.ar    1  UNL1        0.0128
      8 C         143.3326  141.2476  158.1200 C.ar    1  UNL1        0.0621
      9 CL        143.8425  140.0385  157.3934 Cl      1  UNL1       -0.0821
     10 C         142.7001  141.0987  159.4720 C.ar    1  UNL1        0.0651
     11 C         142.1901  142.3079  160.1987 C.ar    1  UNL1        0.0200
     12 C         142.5777  139.7408  160.0973 C.2     1  UNL1        0.2467
     13 O         141.7545  138.6793  159.4300 O.2     1  UNL1       -0.2701
     14 N         143.2785  139.4445  161.3901 N.am    1  UNL1       -0.3008
     15 H         143.8188  140.1412  161.8281 H       1  UNL1        0.1497
     16 C         143.1560  138.0866  162.0154 C.3     1  UNL1        0.0896
     17 C         141.8903  137.6965  162.7196 C.3     1  UNL1        0.0196
     18 C         141.1965  137.0722  163.8938 C.3     1  UNL1        0.0017
     19 C         140.3919  137.6451  162.7650 C.3     1  UNL1        0.0017
     20 C         139.8272  146.2230  161.3151 C.3     1  UNL1        0.2897
     21 O         139.9092  146.2888  162.8113 O.3     1  UNL1       -0.4656
     22 C         140.2486  145.0579  163.5988 C.ar    1  UNL1        0.1393
     23 C         139.1530  144.2009  164.1602 C.ar    1  UNL1        0.0370
     24 C         139.4925  142.9702  164.9475 C.ar    1  UNL1        0.0063
     25 C         140.9275  142.5964  165.1735 C.ar    1  UNL1        0.0392
     26 C         142.0231  143.4534  164.6121 C.ar    1  UNL1        0.0063
     27 C         141.6836  144.6842  163.8247 C.ar    1  UNL1        0.0370
     28 C         141.2669  141.3656  165.9609 C.2     1  UNL1        0.1961
     29 O         142.3144  140.4178  165.4565 O.2     1  UNL1       -0.2866
     30 C         140.5588  141.0827  167.2526 C.ar    1  UNL1        0.0460
     31 C         140.9497  141.8197  168.4992 C.ar    1  UNL1        0.0151
     32 C         140.2415  141.5367  169.7910 C.ar    1  UNL1        0.0578
     33 CL        140.6323  142.2736  171.0376 Cl      1  UNL1       -0.0822
     34 C         139.1426  140.5167  169.8360 C.ar    1  UNL1        0.0119
     35 C         138.7518  139.7797  168.5894 C.ar    1  UNL1        0.0077
     36 C         139.4599  140.0627  167.2977 C.ar    1  UNL1        0.0377
     37 BR        139.0690  139.3257  166.0511 Br      1  UNL1       -0.0489
@<TRIPOS>BOND
     1     1     2    2
     2     2    20    1
     3    20    21    1
     4    21    22    1
     5    22    23   ar
     6    23    24   ar
     7    24    25   ar
     8    25    28    1
     9    28    29    2
    10    28    30    1
    11    30    31   ar
    12    31    32   ar
    13    32    33    1
    14    32    34   ar
    15    34    35   ar
    16    35    36   ar
    17    36    37    1
    18    25    26   ar
    19    26    27   ar
    20     2     3   am
    21     3     5    1
    22     5     6   ar
    23     6     7   ar
    24     7     8   ar
    25     8     9    1
    26     8    10   ar
    27    10    12    1
    28    12    13    2
    29    12    14   am
    30    14    16    1
    31    16    17    1
    32    17    18    1
    33    18    19    1
    34    10    11   ar
    35    27    22   ar
    36    11     5   ar
    37    36    30   ar
    38    19    17    1
    39     3     4    1
    40    14    15    1
@<TRIPOS>MOLECULE
*****
 37 40 0 0 0
SMALL
GASTEIGER

@<TRIPOS>ATOM
      1 O         141.9870  144.6671  159.7092 O.2     1  UNL1       -0.2707
      2 C         140.5214  144.8688  159.9572 C.2     1  UNL1        0.2707
      3 N         139.5559  143.7509  159.6965 N.am    1  UNL1       -0.2809
      4 H         138.5940  143.8833  159.8593 H       1  UNL1        0.1550
      5 C         140.0559  142.4313  159.1880 C.ar    1  UNL1        0.0506
      6 C         139.4974  141.8557  157.9204 C.ar    1  UNL1        0.0155
      7 C         139.9974  140.5361  157.4118 C.ar    1  UNL1        0.0128
      8 C         141.0558  139.7921  158.1708 C.ar    1  UNL1        0.0621
      9 CL        141.5558  138.4725  157.6623 Cl      1  UNL1       -0.0821
     10 C         141.6143  140.3677  159.4384 C.ar    1  UNL1        0.0651
     11 C         141.1143  141.6873  159.9470 C.ar    1  UNL1        0.0200
     12 C         142.6728  139.6237  160.1974 C.2     1  UNL1        0.2467
     13 O         144.0072  139.3634  159.5636 O.2     1  UNL1       -0.2701
     14 N         142.3969  139.1400  161.5902 N.am    1  UNL1       -0.3008
     15 H         141.5211  139.3108  162.0062 H       1  UNL1        0.1497
     16 C         143.4554  138.3960  162.3492 C.3     1  UNL1        0.0896
     17 C         144.1860  139.0696  163.4728 C.3     1  UNL1        0.0196
     18 C         144.6299  139.0911  164.9054 C.3     1  UNL1        0.0017
     19 C         145.0076  140.2147  163.9863 C.3     1  UNL1        0.0017
     20 C         140.0214  146.1885  160.4657 C.3     1  UNL1        0.2897
     21 O         140.1202  146.5155  161.9263 O.3     1  UNL1       -0.4656
     22 C         140.5845  145.4721  162.8988 C.ar    1  UNL1        0.1393
     23 C         139.5851  144.5895  163.5859 C.ar    1  UNL1        0.0370
     24 C         140.0495  143.5462  164.5584 C.ar    1  UNL1        0.0063
     25 C         141.5133  143.3854  164.8437 C.ar    1  UNL1        0.0392
     26 C         142.5127  144.2680  164.1566 C.ar    1  UNL1        0.0063
     27 C         142.0484  145.3113  163.1842 C.ar    1  UNL1        0.0370
     28 C         141.9777  142.3420  165.8163 C.2     1  UNL1        0.1961
     29 O         143.3734  142.3948  166.3633 O.2     1  UNL1       -0.2866
     30 C         141.0464  141.2458  166.2417 C.ar    1  UNL1        0.0460
     31 C         140.8112  140.0697  165.3409 C.ar    1  UNL1        0.0151
     32 C         139.8799  138.9735  165.7663 C.ar    1  UNL1        0.0578
     33 CL        139.6447  137.7974  164.8655 Cl      1  UNL1       -0.0822
     34 C         139.1837  139.0534  167.0926 C.ar    1  UNL1        0.0119
     35 C         139.4189  140.2295  167.9934 C.ar    1  UNL1        0.0077
     36 C         140.3502  141.3257  167.5680 C.ar    1  UNL1        0.0377
     37 BR        140.5854  142.5018  168.4688 Br      1  UNL1       -0.0489
@<TRIPOS>BOND
     1     1     2    2
     2     2    20    1
     3    20    21    1
     4    21    22    1
     5    22    23   ar
     6    23    24   ar
     7    24    25   ar
     8    25    28    1
     9    28    29    2
    10    28    30    1
    11    30    31   ar
    12    31    32   ar
    13    32    33    1
    14    32    34   ar
    15    34    35   ar
    16    35    36   ar
    17    36    37    1
    18    25    26   ar
    19    26    27   ar
    20     2     3   am
    21     3     5    1
    22     5     6   ar
    23     6     7   ar
    24     7     8   ar
    25     8     9    1
    26     8    10   ar
    27    10    12    1
    28    12    13    2
    29    12    14   am
    30    14    16    1
    31    16    17    1
    32    17    18    1
    33    18    19    1
    34    10    11   ar
    35    27    22   ar
    36    11     5   ar
    37    36    30   ar
    38    19    17    1
    39     3     4    1
    40    14    15    1
@<TRIPOS>MOLECULE
*****
 37 40 0 0 0
SMALL
GASTEIGER

@<TRIPOS>ATOM
      1 O         142.8637  137.2128  160.2337 O.2     1  UNL1       -0.2707
      2 C         142.3536  138.4706  159.5953 C.2     1  UNL1        0.2707
      3 N         141.2496  139.2485  160.2480 N.am    1  UNL1       -0.2809
      4 H         140.9148  140.0741  159.8290 H       1  UNL1        0.1550
      5 C         140.6558  138.7686  161.5391 C.ar    1  UNL1        0.0506
      6 C         139.3139  138.0983  161.5441 C.ar    1  UNL1        0.0155
      7 C         138.7200  137.6183  162.8352 C.ar    1  UNL1        0.0128
      8 C         139.4681  137.8086  164.1213 C.ar    1  UNL1        0.0621
      9 CL        138.8743  137.3286  165.4124 Cl      1  UNL1       -0.0821
     10 C         140.8100  138.4788  164.1164 C.ar    1  UNL1        0.0651
     11 C         141.4039  138.9588  162.8253 C.ar    1  UNL1        0.0200
     12 C         141.5581  138.6691  165.4026 C.2     1  UNL1        0.2467
     13 O         142.8110  137.8871  165.6642 O.2     1  UNL1       -0.2701
     14 N         141.0531  139.6415  166.4271 N.am    1  UNL1       -0.3008
     15 H         140.2307  140.1547  166.2554 H       1  UNL1        0.1497
     16 C         141.8012  139.8317  167.7133 C.3     1  UNL1        0.0896
     17 C         142.5644  141.0999  167.9564 C.3     1  UNL1        0.0196
     18 C         143.3164  142.2852  167.4276 C.3     1  UNL1        0.0017
     19 C         143.1345  142.1112  168.9063 C.3     1  UNL1        0.0017
     20 C         142.9475  138.9506  158.3041 C.3     1  UNL1        0.2897
     21 O         143.6881  140.2541  158.2580 O.3     1  UNL1       -0.4656
     22 C         143.4452  141.2925  159.3130 C.ar    1  UNL1        0.1393
     23 C         144.1553  141.2028  160.6312 C.ar    1  UNL1        0.0370
     24 C         143.9124  142.2412  161.6860 C.ar    1  UNL1        0.0063
     25 C         142.9594  143.3692  161.4227 C.ar    1  UNL1        0.0392
     26 C         142.2493  143.4589  160.1045 C.ar    1  UNL1        0.0063
     27 C         142.4922  142.4205  159.0496 C.ar    1  UNL1        0.0370
     28 C         142.7165  144.4076  162.4776 C.2     1  UNL1        0.1961
     29 O         143.7574  145.4510  162.7567 O.2     1  UNL1       -0.2866
     30 C         141.4328  144.4025  163.2535 C.ar    1  UNL1        0.0460
     31 C         141.3609  143.7060  164.5800 C.ar    1  UNL1        0.0151
     32 C         140.0770  143.7010  165.3558 C.ar    1  UNL1        0.0578
     33 CL        140.0051  143.0044  166.6823 Cl      1  UNL1       -0.0822
     34 C         138.8652  144.3925  164.8051 C.ar    1  UNL1        0.0119
     35 C         138.9372  145.0890  163.4786 C.ar    1  UNL1        0.0077
     36 C         140.2209  145.0941  162.7028 C.ar    1  UNL1        0.0377
     37 BR        140.2928  145.7907  161.3763 Br      1  UNL1       -0.0489
@<TRIPOS>BOND
     1     1     2    2
     2     2    20    1
     3    20    21    1
     4    21    22    1
     5    22    23   ar
     6    23    24   ar
     7    24    25   ar
     8    25    28    1
     9    28    29    2
    10    28    30    1
    11    30    31   ar
    12    31    32   ar
    13    32    33    1
    14    32    34   ar
    15    34    35   ar
    16    35    36   ar
    17    36    37    1
    18    25    26   ar
    19    26    27   ar
    20     2     3   am
    21     3     5    1
    22     5     6   ar
    23     6     7   ar
    24     7     8   ar
    25     8     9    1
    26     8    10   ar
    27    10    12    1
    28    12    13    2
    29    12    14   am
    30    14    16    1
    31    16    17    1
    32    17    18    1
    33    18    19    1
    34    10    11   ar
    35    27    22   ar
    36    11     5   ar
    37    36    30   ar
    38    19    17    1
    39     3     4    1
    40    14    15    1
