@<TRIPOS>MOLECULE
*****
 23 26 0 0 0
SMALL
GASTEIGER

@<TRIPOS>ATOM
      1 N         143.2961  143.8334  171.3834 N.pl3   1  UNL1       -0.3375
      2 C         142.7144  143.0112  170.2718 C.ar    1  UNL1        0.1567
      3 N         143.3980  142.6607  168.9834 N.ar    1  UNL1       -0.2245
      4 C         142.4530  141.8282  168.1688 C.ar    1  UNL1        0.0889
      5 C         142.5831  141.1982  166.8137 C.ar    1  UNL1        0.0151
      6 C         141.4453  140.4041  166.2434 C.ar    1  UNL1       -0.0232
      7 C         140.1777  140.2400  167.0283 C.ar    1  UNL1       -0.0241
      8 C         140.0476  140.8699  168.3833 C.ar    1  UNL1        0.0035
      9 C         141.1853  141.6640  168.9536 C.ar    1  UNL1        0.0494
     10 S         141.3469  142.3952  170.2533 S.2     1  UNL1       -0.0520
     11 C         138.9324  139.4949  166.6486 C.3     1  UNL1        0.0434
     12 C         138.6474  138.7299  165.3901 C.3     1  UNL1        0.0772
     13 N         139.5371  138.5211  164.2008 N.3     1  UNL1       -0.2657
     14 C         140.9317  139.0256  163.9759 C.3     1  UNL1        0.0772
     15 C         141.7810  139.8637  164.8850 C.3     1  UNL1        0.0434
     16 H         144.2076  144.1965  171.3021 H       1  UNL1        0.1442
     17 H         142.7665  144.0099  172.1943 H       1  UNL1        0.1442
     18 C         138.9554  137.6989  163.0892 C.3     1  UNL1        0.1394
     19 C         138.8227  138.2835  161.7141 C.ar    1  UNL1        0.1600
     20 C         137.6783  139.1157  161.2165 C.ar    1  UNL1        0.1365
     21 N         137.9596  139.4849  159.7901 N.ar    1  UNL1       -0.2029
     22 C         139.2778  138.8809  159.4062 C.ar    1  UNL1        0.2849
     23 O         139.8113  138.1383  160.5953 O.2     1  UNL1       -0.4341
@<TRIPOS>BOND
     1     1     2    1
     2     2     3   ar
     3     3     4   ar
     4     4     5   ar
     5     5     6   ar
     6     6     7   ar
     7     7     8   ar
     8     8     9   ar
     9     9    10   ar
    10     7    11    1
    11    11    12    1
    12    12    13    1
    13    13    18    1
    14    18    19    1
    15    19    20   ar
    16    20    21   ar
    17    21    22   ar
    18    22    23   ar
    19    13    14    1
    20    14    15    1
    21    10     2   ar
    22    23    19   ar
    23     9     4   ar
    24    15     6    1
    25     1    16    1
    26     1    17    1
@<TRIPOS>MOLECULE
*****
 23 26 0 0 0
SMALL
GASTEIGER

@<TRIPOS>ATOM
      1 N         143.7427  139.6724  171.3999 N.pl3   1  UNL1       -0.3375
      2 C         142.9459  140.0970  170.2020 C.ar    1  UNL1        0.1567
      3 N         143.2350  141.2789  169.3246 N.ar    1  UNL1       -0.2245
      4 C         142.1880  141.3266  168.2516 C.ar    1  UNL1        0.0889
      5 C         141.9661  142.2706  167.1071 C.ar    1  UNL1        0.0151
      6 C         140.8079  142.0621  166.1768 C.ar    1  UNL1       -0.0232
      7 C         139.8719  140.9099  166.3910 C.ar    1  UNL1       -0.0241
      8 C         140.0937  139.9660  167.5354 C.ar    1  UNL1        0.0035
      9 C         141.2518  140.1744  168.4658 C.ar    1  UNL1        0.0494
     10 S         141.7203  139.4144  169.6712 S.2     1  UNL1       -0.0520
     11 C         138.6652  140.5235  165.5880 C.3     1  UNL1        0.0434
     12 C         138.0967  141.1939  164.3725 C.3     1  UNL1        0.0772
     13 N         138.5945  142.4163  163.6599 N.3     1  UNL1       -0.2657
     14 C         139.7837  143.2702  163.9866 C.3     1  UNL1        0.0772
     15 C         140.7687  143.1126  165.1067 C.3     1  UNL1        0.0434
     16 H         144.5363  140.1880  171.6713 H       1  UNL1        0.1442
     17 H         143.4720  138.8781  171.9147 H       1  UNL1        0.1442
     18 C         137.7978  142.8409  162.4620 C.3     1  UNL1        0.1394
     19 C         138.4180  142.8030  161.0967 C.ar    1  UNL1        0.1600
     20 C         138.4302  141.6265  160.1662 C.ar    1  UNL1        0.1365
     21 N         139.1547  142.0313  158.9167 N.ar    1  UNL1       -0.2029
     22 C         139.5903  143.4579  159.0749 C.ar    1  UNL1        0.2849
     23 O         139.1350  143.9349  160.4223 O.2     1  UNL1       -0.4341
@<TRIPOS>BOND
     1     1     2    1
     2     2     3   ar
     3     3     4   ar
     4     4     5   ar
     5     5     6   ar
     6     6     7   ar
     7     7     8   ar
     8     8     9   ar
     9     9    10   ar
    10     7    11    1
    11    11    12    1
    12    12    13    1
    13    13    18    1
    14    18    19    1
    15    19    20   ar
    16    20    21   ar
    17    21    22   ar
    18    22    23   ar
    19    13    14    1
    20    14    15    1
    21    10     2   ar
    22    23    19   ar
    23     9     4   ar
    24    15     6    1
    25     1    16    1
    26     1    17    1
@<TRIPOS>MOLECULE
*****
 23 26 0 0 0
SMALL
GASTEIGER

@<TRIPOS>ATOM
      1 N         139.5621  139.0778  171.6772 N.pl3   1  UNL1       -0.3375
      2 C         140.0823  139.7838  170.4602 C.ar    1  UNL1        0.1567
      3 N         139.2922  140.1181  169.2297 N.ar    1  UNL1       -0.2245
      4 C         140.2055  140.8203  168.2692 C.ar    1  UNL1        0.0889
      5 C         139.9787  141.3819  166.8968 C.ar    1  UNL1        0.0151
      6 C         141.1065  142.0431  166.1613 C.ar    1  UNL1       -0.0232
      7 C         142.4608  142.1428  166.7980 C.ar    1  UNL1       -0.0241
      8 C         142.6877  141.5813  168.1703 C.ar    1  UNL1        0.0035
      9 C         141.5600  140.9200  168.9059 C.ar    1  UNL1        0.0494
     10 S         141.4838  140.2794  170.2601 S.2     1  UNL1       -0.0520
     11 C         143.7121  142.7570  166.2436 C.3     1  UNL1        0.0434
     12 C         143.9177  143.4231  164.9153 C.3     1  UNL1        0.0772
     13 N         142.9231  143.6395  163.8137 N.3     1  UNL1       -0.2657
     14 C         141.4771  143.2434  163.7680 C.3     1  UNL1        0.0772
     15 C         140.6686  142.5329  164.8128 C.3     1  UNL1        0.0434
     16 H         138.6216  138.7894  171.7147 H       1  UNL1        0.1442
     17 H         140.1613  138.9028  172.4385 H       1  UNL1        0.1442
     18 C         143.4432  144.3455  162.5967 C.3     1  UNL1        0.1394
     19 C         143.5984  143.5985  161.3052 C.ar    1  UNL1        0.1600
     20 C         144.4504  142.3835  161.0862 C.ar    1  UNL1        0.1365
     21 N         144.3073  141.9696  159.6516 N.ar    1  UNL1       -0.2029
     22 C         143.3670  142.9287  158.9839 C.ar    1  UNL1        0.2849
     23 O         142.9288  143.9355  160.0059 O.2     1  UNL1       -0.4341
@<TRIPOS>BOND
     1     1     2    1
     2     2     3   ar
     3     3     4   ar
     4     4     5   ar
     5     5     6   ar
     6     6     7   ar
     7     7     8   ar
     8     8     9   ar
     9     9    10   ar
    10     7    11    1
    11    11    12    1
    12    12    13    1
    13    13    18    1
    14    18    19    1
    15    19    20   ar
    16    20    21   ar
    17    21    22   ar
    18    22    23   ar
    19    13    14    1
    20    14    15    1
    21    10     2   ar
    22    23    19   ar
    23     9     4   ar
    24    15     6    1
    25     1    16    1
    26     1    17    1
@<TRIPOS>MOLECULE
*****
 23 26 0 0 0
SMALL
GASTEIGER

@<TRIPOS>ATOM
      1 N         142.5762  140.6342  171.6578 N.pl3   1  UNL1       -0.3375
      2 C         142.1181  140.2877  170.2721 C.ar    1  UNL1        0.1567
      3 N         142.9916  139.8216  169.1453 N.ar    1  UNL1       -0.2245
      4 C         142.1193  139.5924  167.9468 C.ar    1  UNL1        0.0889
      5 C         142.4289  139.1301  166.5538 C.ar    1  UNL1        0.0151
      6 C         141.3256  138.9923  165.5468 C.ar    1  UNL1       -0.0232
      7 C         139.9131  139.3167  165.9328 C.ar    1  UNL1       -0.0241
      8 C         139.6034  139.7790  167.3258 C.ar    1  UNL1        0.0035
      9 C         140.7066  139.9168  168.3328 C.ar    1  UNL1        0.0494
     10 S         140.7059  140.3466  169.7700 S.2     1  UNL1       -0.0520
     11 C         138.6739  139.2482  165.0901 C.3     1  UNL1        0.0434
     12 C         138.5416  138.8382  163.6533 C.3     1  UNL1        0.0772
     13 N         139.6156  138.3956  162.7044 N.3     1  UNL1       -0.2657
     14 C         141.0872  138.2535  162.9578 C.3     1  UNL1        0.0772
     15 C         141.8483  138.5191  164.2228 C.3     1  UNL1        0.0434
     16 H         143.5296  140.5635  171.8931 H       1  UNL1        0.1442
     17 H         141.9236  140.9323  172.3319 H       1  UNL1        0.1442
     18 C         139.1574  138.0491  161.3187 C.3     1  UNL1        0.1394
     19 C         139.0403  139.1222  160.2771 C.ar    1  UNL1        0.1600
     20 C         140.1647  139.9596  159.7436 C.ar    1  UNL1        0.1365
     21 N         139.5975  140.9012  158.7230 N.ar    1  UNL1       -0.2029
     22 C         138.1226  140.6458  158.6257 C.ar    1  UNL1        0.2849
     23 O         137.7782  139.5463  159.5862 O.2     1  UNL1       -0.4341
@<TRIPOS>BOND
     1     1     2    1
     2     2     3   ar
     3     3     4   ar
     4     4     5   ar
     5     5     6   ar
     6     6     7   ar
     7     7     8   ar
     8     8     9   ar
     9     9    10   ar
    10     7    11    1
    11    11    12    1
    12    12    13    1
    13    13    18    1
    14    18    19    1
    15    19    20   ar
    16    20    21   ar
    17    21    22   ar
    18    22    23   ar
    19    13    14    1
    20    14    15    1
    21    10     2   ar
    22    23    19   ar
    23     9     4   ar
    24    15     6    1
    25     1    16    1
    26     1    17    1
@<TRIPOS>MOLECULE
*****
 23 26 0 0 0
SMALL
GASTEIGER

@<TRIPOS>ATOM
      1 N         140.1781  142.5416  171.5194 N.pl3   1  UNL1       -0.3375
      2 C         140.0976  141.9368  170.1491 C.ar    1  UNL1        0.1567
      3 N         139.3645  140.6809  169.7813 N.ar    1  UNL1       -0.2245
      4 C         139.5499  140.4497  168.3109 C.ar    1  UNL1        0.0889
      5 C         139.0563  139.3694  167.3947 C.ar    1  UNL1        0.0151
      6 C         139.4104  139.4023  165.9374 C.ar    1  UNL1       -0.0232
      7 C         140.2579  140.5153  165.3964 C.ar    1  UNL1       -0.0241
      8 C         140.7514  141.5956  166.3126 C.ar    1  UNL1        0.0035
      9 C         140.3974  141.5628  167.7699 C.ar    1  UNL1        0.0494
     10 S         140.7359  142.4819  168.9060 S.2     1  UNL1       -0.0520
     11 C         140.7234  140.7365  163.9877 C.3     1  UNL1        0.0434
     12 C         140.4563  139.8992  162.7721 C.3     1  UNL1        0.0772
     13 N         139.6577  138.6340  162.6650 N.3     1  UNL1       -0.2657
     14 C         138.9290  137.8935  163.7470 C.3     1  UNL1        0.0772
     15 C         138.8190  138.2354  165.2034 C.3     1  UNL1        0.0434
     16 H         139.7228  142.1074  172.2767 H       1  UNL1        0.1442
     17 H         140.6863  143.3727  171.6616 H       1  UNL1        0.1442
     18 C         139.5772  138.0293  161.2947 C.3     1  UNL1        0.1394
     19 C         139.0939  138.8535  160.1383 C.ar    1  UNL1        0.1600
     20 C         137.8480  139.6883  160.1103 C.ar    1  UNL1        0.1365
     21 N         137.7558  140.3383  158.7616 N.ar    1  UNL1       -0.2029
     22 C         138.9446  139.9051  157.9560 C.ar    1  UNL1        0.2849
     23 O         139.7717  138.9874  158.8068 O.2     1  UNL1       -0.4341
@<TRIPOS>BOND
     1     1     2    1
     2     2     3   ar
     3     3     4   ar
     4     4     5   ar
     5     5     6   ar
     6     6     7   ar
     7     7     8   ar
     8     8     9   ar
     9     9    10   ar
    10     7    11    1
    11    11    12    1
    12    12    13    1
    13    13    18    1
    14    18    19    1
    15    19    20   ar
    16    20    21   ar
    17    21    22   ar
    18    22    23   ar
    19    13    14    1
    20    14    15    1
    21    10     2   ar
    22    23    19   ar
    23     9     4   ar
    24    15     6    1
    25     1    16    1
    26     1    17    1
@<TRIPOS>MOLECULE
*****
 23 26 0 0 0
SMALL
GASTEIGER

@<TRIPOS>ATOM
      1 N         140.5392  140.2087  171.8111 N.pl3   1  UNL1       -0.3375
      2 C         140.3500  140.6009  170.3757 C.ar    1  UNL1        0.1567
      3 N         139.8553  139.7090  169.2758 N.ar    1  UNL1       -0.2245
      4 C         139.8219  140.5108  168.0085 C.ar    1  UNL1        0.0889
      5 C         139.4210  140.1567  166.6071 C.ar    1  UNL1        0.0151
      6 C         139.4942  141.1902  165.5223 C.ar    1  UNL1       -0.0232
      7 C         139.9683  142.5775  165.8390 C.ar    1  UNL1       -0.0241
      8 C         140.3692  142.9316  167.2403 C.ar    1  UNL1        0.0035
      9 C         140.2960  141.8982  168.3252 C.ar    1  UNL1        0.0494
     10 S         140.6224  141.9539  169.7882 S.2     1  UNL1       -0.0520
     11 C         140.1160  143.7493  164.9141 C.3     1  UNL1        0.0434
     12 C         139.8260  143.8229  163.4442 C.3     1  UNL1        0.0772
     13 N         139.3169  142.7431  162.5362 N.3     1  UNL1       -0.2657
     14 C         138.9718  141.3228  162.8737 C.3     1  UNL1        0.0772
     15 C         139.0507  140.6317  164.2027 C.3     1  UNL1        0.0434
     16 H         140.3318  139.2914  172.1022 H       1  UNL1        0.1442
     17 H         140.8707  140.8686  172.4621 H       1  UNL1        0.1442
     18 C         139.1277  143.1353  161.1008 C.3     1  UNL1        0.1394
     19 C         140.2742  143.7105  160.3230 C.ar    1  UNL1        0.1600
     20 C         140.5005  145.1643  160.0313 C.ar    1  UNL1        0.1365
     21 N         141.7618  145.2850  159.2284 N.ar    1  UNL1       -0.2029
     22 C         142.3150  143.9058  159.0239 C.ar    1  UNL1        0.2849
     23 O         141.3956  142.9326  159.7005 O.2     1  UNL1       -0.4341
@<TRIPOS>BOND
     1     1     2    1
     2     2     3   ar
     3     3     4   ar
     4     4     5   ar
     5     5     6   ar
     6     6     7   ar
     7     7     8   ar
     8     8     9   ar
     9     9    10   ar
    10     7    11    1
    11    11    12    1
    12    12    13    1
    13    13    18    1
    14    18    19    1
    15    19    20   ar
    16    20    21   ar
    17    21    22   ar
    18    22    23   ar
    19    13    14    1
    20    14    15    1
    21    10     2   ar
    22    23    19   ar
    23     9     4   ar
    24    15     6    1
    25     1    16    1
    26     1    17    1
@<TRIPOS>MOLECULE
*****
 23 26 0 0 0
SMALL
GASTEIGER

@<TRIPOS>ATOM
      1 N         140.2241  142.4375  171.6214 N.pl3   1  UNL1       -0.3375
      2 C         140.1069  141.9036  170.2246 C.ar    1  UNL1        0.1567
      3 N         140.6345  142.5593  168.9828 N.ar    1  UNL1       -0.2245
      4 C         140.2953  141.6812  167.8151 C.ar    1  UNL1        0.0889
      5 C         140.5624  141.8180  166.3454 C.ar    1  UNL1        0.0151
      6 C         140.0923  140.7564  165.3956 C.ar    1  UNL1       -0.0232
      7 C         139.3551  139.5581  165.9155 C.ar    1  UNL1       -0.0241
      8 C         139.0879  139.4212  167.3851 C.ar    1  UNL1        0.0035
      9 C         139.5580  140.4828  168.3350 C.ar    1  UNL1        0.0494
     10 S         139.4416  140.6203  169.8241 S.2     1  UNL1       -0.0520
     11 C         138.8037  138.3934  165.1476 C.3     1  UNL1        0.0434
     12 C         138.8536  138.1396  163.6699 C.3     1  UNL1        0.0772
     13 N         139.4670  138.9876  162.5956 N.3     1  UNL1       -0.2657
     14 C         140.1821  140.2990  162.7332 C.3     1  UNL1        0.0772
     15 C         140.4604  141.0862  163.9794 C.3     1  UNL1        0.0434
     16 H         140.6816  143.2939  171.7843 H       1  UNL1        0.1442
     17 H         139.8435  141.9315  172.3753 H       1  UNL1        0.1442
     18 C         139.3498  138.4537  161.1987 C.3     1  UNL1        0.1394
     19 C         140.5729  138.3251  160.3398 C.ar    1  UNL1        0.1600
     20 C         140.6575  138.6333  158.8742 C.ar    1  UNL1        0.1365
     21 N         142.0629  138.3643  158.4245 N.ar    1  UNL1       -0.2029
     22 C         142.8470  137.8900  159.6120 C.ar    1  UNL1        0.2849
     23 O         141.9260  137.8657  160.7958 O.2     1  UNL1       -0.4341
@<TRIPOS>BOND
     1     1     2    1
     2     2     3   ar
     3     3     4   ar
     4     4     5   ar
     5     5     6   ar
     6     6     7   ar
     7     7     8   ar
     8     8     9   ar
     9     9    10   ar
    10     7    11    1
    11    11    12    1
    12    12    13    1
    13    13    18    1
    14    18    19    1
    15    19    20   ar
    16    20    21   ar
    17    21    22   ar
    18    22    23   ar
    19    13    14    1
    20    14    15    1
    21    10     2   ar
    22    23    19   ar
    23     9     4   ar
    24    15     6    1
    25     1    16    1
    26     1    17    1
@<TRIPOS>MOLECULE
*****
 23 26 0 0 0
SMALL
GASTEIGER

@<TRIPOS>ATOM
      1 N         139.5916  139.1721  171.7359 N.pl3   1  UNL1       -0.3375
      2 C         140.1233  139.8860  170.5285 C.ar    1  UNL1        0.1567
      3 N         141.5523  140.2772  170.2937 N.ar    1  UNL1       -0.2245
      4 C         141.6315  140.9670  168.9641 C.ar    1  UNL1        0.0889
      5 C         142.7820  141.5677  168.2120 C.ar    1  UNL1        0.0151
      6 C         142.5524  142.2035  166.8729 C.ar    1  UNL1       -0.0232
      7 C         141.1726  142.2386  166.2860 C.ar    1  UNL1       -0.0241
      8 C         140.0221  141.6379  167.0380 C.ar    1  UNL1        0.0035
      9 C         140.2515  141.0021  168.3771 C.ar    1  UNL1        0.0494
     10 S         139.3195  140.3340  169.3440 S.2     1  UNL1       -0.0520
     11 C         140.7278  142.8186  164.9761 C.3     1  UNL1        0.0434
     12 C         141.5533  143.5069  163.9296 C.3     1  UNL1        0.0772
     13 N         143.0272  143.7850  163.9347 N.3     1  UNL1       -0.2657
     14 C         144.0399  143.4436  164.9874 C.3     1  UNL1        0.0772
     15 C         143.8285  142.7398  166.2950 C.3     1  UNL1        0.0434
     16 H         140.2015  138.9178  172.4657 H       1  UNL1        0.1442
     17 H         138.6328  138.9577  171.7984 H       1  UNL1        0.1442
     18 C         143.5589  144.4989  162.7274 C.3     1  UNL1        0.1394
     19 C         143.1744  144.0370  161.3530 C.ar    1  UNL1        0.1600
     20 C         143.7426  142.8520  160.6298 C.ar    1  UNL1        0.1365
     21 N         143.0734  142.7618  159.2904 N.ar    1  UNL1       -0.2029
     22 C         142.0916  143.8910  159.1857 C.ar    1  UNL1        0.2849
     23 O         142.1540  144.6792  160.4605 O.2     1  UNL1       -0.4341
@<TRIPOS>BOND
     1     1     2    1
     2     2     3   ar
     3     3     4   ar
     4     4     5   ar
     5     5     6   ar
     6     6     7   ar
     7     7     8   ar
     8     8     9   ar
     9     9    10   ar
    10     7    11    1
    11    11    12    1
    12    12    13    1
    13    13    18    1
    14    18    19    1
    15    19    20   ar
    16    20    21   ar
    17    21    22   ar
    18    22    23   ar
    19    13    14    1
    20    14    15    1
    21    10     2   ar
    22    23    19   ar
    23     9     4   ar
    24    15     6    1
    25     1    16    1
    26     1    17    1
@<TRIPOS>MOLECULE
*****
 23 26 0 0 0
SMALL
GASTEIGER

@<TRIPOS>ATOM
      1 N         137.6759  140.2778  158.1622 N.pl3   1  UNL1       -0.3375
      2 C         138.1479  140.2280  159.5851 C.ar    1  UNL1        0.1567
      3 N         137.3102  139.8823  160.7804 N.ar    1  UNL1       -0.2245
      4 C         138.1851  139.9558  161.9966 C.ar    1  UNL1        0.0889
      5 C         137.9046  139.7171  163.4507 C.ar    1  UNL1        0.0151
      6 C         139.0027  139.8696  164.4612 C.ar    1  UNL1       -0.0232
      7 C         140.3811  140.2607  164.0176 C.ar    1  UNL1       -0.0241
      8 C         140.6616  140.4994  162.5635 C.ar    1  UNL1        0.0035
      9 C         139.5636  140.3470  161.5530 C.ar    1  UNL1        0.0494
     10 S         139.5406  140.5152  160.0626 S.2     1  UNL1       -0.0520
     11 C         141.6097  140.4656  164.8535 C.3     1  UNL1        0.0434
     12 C         141.7631  140.3300  166.3395 C.3     1  UNL1        0.0772
     13 N         140.7259  139.9560  167.3564 N.3     1  UNL1       -0.2657
     14 C         139.2791  139.6252  167.1388 C.3     1  UNL1        0.0772
     15 C         138.5122  139.5867  165.8502 C.3     1  UNL1        0.0434
     16 H         136.7375  140.0719  157.9474 H       1  UNL1        0.1442
     17 H         138.3045  140.5165  157.4431 H       1  UNL1        0.1442
     18 C         141.1980  139.9062  168.7794 C.3     1  UNL1        0.1394
     19 C         140.7863  140.9785  169.7442 C.ar    1  UNL1        0.1600
     20 C         141.0656  140.9932  171.2179 C.ar    1  UNL1        0.1365
     21 N         140.4749  142.2481  171.7890 N.ar    1  UNL1       -0.2029
     22 C         139.8306  143.0090  170.6685 C.ar    1  UNL1        0.2849
     23 O         140.0230  142.2244  169.4046 O.2     1  UNL1       -0.4341
@<TRIPOS>BOND
     1     1     2    1
     2     2     3   ar
     3     3     4   ar
     4     4     5   ar
     5     5     6   ar
     6     6     7   ar
     7     7     8   ar
     8     8     9   ar
     9     9    10   ar
    10     7    11    1
    11    11    12    1
    12    12    13    1
    13    13    18    1
    14    18    19    1
    15    19    20   ar
    16    20    21   ar
    17    21    22   ar
    18    22    23   ar
    19    13    14    1
    20    14    15    1
    21    10     2   ar
    22    23    19   ar
    23     9     4   ar
    24    15     6    1
    25     1    16    1
    26     1    17    1
