@<TRIPOS>MOLECULE
*****
 32 35 0 0 0
SMALL
GASTEIGER

@<TRIPOS>ATOM
      1 N         144.2422  139.9561  163.8932 N.3     1  UNL1       -0.2700
      2 C         143.9251  139.4417  165.2660 C.3     1  UNL1        0.0897
      3 C         142.7073  138.5941  165.4866 C.3     1  UNL1        0.0897
      4 N         141.8066  138.2611  164.3343 N.3     1  UNL1       -0.2700
      5 C         142.1237  138.7755  162.9614 C.3     1  UNL1        0.0897
      6 C         143.3415  139.6231  162.7409 C.3     1  UNL1        0.0897
      7 C         145.4599  140.8037  163.6726 C.3     1  UNL1        0.0769
      8 C         145.4007  142.2815  163.9230 C.3     1  UNL1        0.0438
      9 C         142.7805  144.0566  161.5287 C.ar    1  UNL1        0.1479
     10 C         143.9668  143.2643  161.9924 C.ar    1  UNL1        0.0334
     11 C         144.2145  143.0738  163.4595 C.ar    1  UNL1       -0.0177
     12 C         143.2759  143.6756  164.4629 C.ar    1  UNL1       -0.0033
     13 C         142.0896  144.4679  163.9992 C.ar    1  UNL1        0.0130
     14 C         141.8419  144.6584  162.5322 C.ar    1  UNL1        0.1023
     15 C         143.1364  143.2978  159.0696 C.3     1  UNL1        0.2525
     16 O         142.5328  144.2472  160.0616 O.3     1  UNL1       -0.4708
     17 C         140.6556  145.4508  162.0686 C.1     1  UNL1        0.1035
     18 N         139.4693  146.2431  161.6050 N.1     1  UNL1       -0.1907
     19 C         140.5889  137.4135  164.5548 C.3     1  UNL1        0.0765
     20 C         139.3373  138.0284  165.1076 C.3     1  UNL1        0.0380
     21 C         138.2955  137.1606  165.7492 C.3     1  UNL1        0.0061
     22 C         139.1275  139.5110  165.0188 C.ar    1  UNL1       -0.0253
     23 C         139.5898  140.4020  166.1333 C.ar    1  UNL1       -0.0044
     24 C         139.3800  141.8846  166.0445 C.ar    1  UNL1        0.0059
     25 C         138.7080  142.4762  164.8411 C.ar    1  UNL1        0.0748
     26 C         138.2456  141.5852  163.7264 C.ar    1  UNL1        0.0233
     27 C         138.4554  140.1026  163.8152 C.ar    1  UNL1       -0.0260
     28 C         137.9931  139.2115  162.7006 C.3     1  UNL1        0.0305
     29 C         137.6186  142.4488  162.6724 C.3     1  UNL1        0.2352
     30 O         137.6933  143.8735  163.1356 O.3     1  UNL1       -0.4404
     31 C         138.3666  143.8905  164.4759 C.2     1  UNL1        0.3413
     32 O         138.6489  145.1079  165.3054 O.2     1  UNL1       -0.2449
@<TRIPOS>BOND
     1    15    16    1
     2    16     9    1
     3     9    10   ar
     4    10    11   ar
     5    11     8    1
     6     8     7    1
     7     7     1    1
     8     1     2    1
     9     2     3    1
    10     3     4    1
    11     4    19    1
    12    19    20    1
    13    20    21    1
    14    20    22    1
    15    22    23   ar
    16    23    24   ar
    17    24    25   ar
    18    25    26   ar
    19    26    27   ar
    20    27    28    1
    21    26    29    1
    22    29    30    1
    23    30    31    1
    24    31    32    2
    25     4     5    1
    26     5     6    1
    27    11    12   ar
    28    12    13   ar
    29    13    14   ar
    30    14    17    1
    31    17    18    3
    32    14     9   ar
    33     6     1    1
    34    27    22   ar
    35    31    25    1
@<TRIPOS>MOLECULE
*****
 32 35 0 0 0
SMALL
GASTEIGER

@<TRIPOS>ATOM
      1 N         140.1352  139.3394  160.8499 N.3     1  UNL1       -0.2700
      2 C         140.4698  138.2201  161.7908 C.3     1  UNL1        0.0897
      3 C         141.8090  138.1826  162.4656 C.3     1  UNL1        0.0897
      4 N         142.8134  139.2645  162.1995 N.3     1  UNL1       -0.2700
      5 C         142.4787  140.3838  161.2586 C.3     1  UNL1        0.0897
      6 C         141.1396  140.4212  160.5839 C.3     1  UNL1        0.0897
      7 C         138.7961  139.3769  160.1752 C.3     1  UNL1        0.0769
      8 C         137.6014  139.9113  160.9082 C.3     1  UNL1        0.0438
      9 C         138.1513  143.5047  162.5001 C.ar    1  UNL1        0.1479
     10 C         137.9814  142.4165  161.4819 C.ar    1  UNL1        0.0334
     11 C         137.7713  140.9994  161.9265 C.ar    1  UNL1       -0.0177
     12 C         137.7311  140.6706  163.3895 C.ar    1  UNL1       -0.0033
     13 C         137.9010  141.7588  164.4077 C.ar    1  UNL1        0.0130
     14 C         138.1111  143.1759  163.9631 C.ar    1  UNL1        0.1023
     15 C         139.7527  145.4558  161.8849 C.3     1  UNL1        0.2525
     16 O         138.3614  144.9219  162.0556 O.3     1  UNL1       -0.4708
     17 C         138.2810  144.2641  164.9815 C.1     1  UNL1        0.1035
     18 N         138.4508  145.3522  165.9999 N.1     1  UNL1       -0.1907
     19 C         144.1525  139.2270  162.8743 C.3     1  UNL1        0.0765
     20 C         144.4411  140.1511  164.0200 C.3     1  UNL1        0.0380
     21 C         145.6094  141.0895  163.9507 C.3     1  UNL1        0.0061
     22 C         143.5615  140.1369  165.2350 C.ar    1  UNL1       -0.0253
     23 C         143.6977  139.0380  166.2467 C.ar    1  UNL1       -0.0044
     24 C         142.8181  139.0238  167.4616 C.ar    1  UNL1        0.0059
     25 C         141.8023  140.1086  167.6648 C.ar    1  UNL1        0.0748
     26 C         141.6661  141.2076  166.6531 C.ar    1  UNL1        0.0233
     27 C         142.5457  141.2218  165.4381 C.ar    1  UNL1       -0.0260
     28 C         142.4095  142.3208  164.4263 C.3     1  UNL1        0.0305
     29 C         140.5833  142.1352  167.1191 C.3     1  UNL1        0.2352
     30 O         140.0503  141.6094  168.4189 O.3     1  UNL1       -0.4404
     31 C         140.8037  140.3569  168.7562 C.2     1  UNL1        0.3413
     32 O         140.5950  139.5027  169.9715 O.2     1  UNL1       -0.2449
@<TRIPOS>BOND
     1    15    16    1
     2    16     9    1
     3     9    10   ar
     4    10    11   ar
     5    11     8    1
     6     8     7    1
     7     7     1    1
     8     1     2    1
     9     2     3    1
    10     3     4    1
    11     4    19    1
    12    19    20    1
    13    20    21    1
    14    20    22    1
    15    22    23   ar
    16    23    24   ar
    17    24    25   ar
    18    25    26   ar
    19    26    27   ar
    20    27    28    1
    21    26    29    1
    22    29    30    1
    23    30    31    1
    24    31    32    2
    25     4     5    1
    26     5     6    1
    27    11    12   ar
    28    12    13   ar
    29    13    14   ar
    30    14    17    1
    31    17    18    3
    32    14     9   ar
    33     6     1    1
    34    27    22   ar
    35    31    25    1
@<TRIPOS>MOLECULE
*****
 32 35 0 0 0
SMALL
GASTEIGER

@<TRIPOS>ATOM
      1 N         144.3507  140.0992  164.0065 N.3     1  UNL1       -0.2700
      2 C         143.9269  139.1705  162.9074 C.3     1  UNL1        0.0897
      3 C         142.7697  138.2394  163.1168 C.3     1  UNL1        0.0897
      4 N         142.0363  138.2370  164.4253 N.3     1  UNL1       -0.2700
      5 C         142.4600  139.1656  165.5244 C.3     1  UNL1        0.0897
      6 C         143.6172  140.0967  165.3150 C.3     1  UNL1        0.0897
      7 C         145.5079  141.0304  163.7972 C.3     1  UNL1        0.0769
      8 C         145.3553  142.4939  164.0886 C.3     1  UNL1        0.0438
      9 C         142.7576  144.0739  161.5382 C.ar    1  UNL1        0.1479
     10 C         143.9399  143.3219  162.0735 C.ar    1  UNL1        0.0334
     11 C         144.1729  143.2459  163.5534 C.ar    1  UNL1       -0.0177
     12 C         143.2237  143.9219  164.4978 C.ar    1  UNL1       -0.0033
     13 C         142.0415  144.6739  163.9625 C.ar    1  UNL1        0.0130
     14 C         141.8084  144.7499  162.4826 C.ar    1  UNL1        0.1023
     15 C         143.2467  143.2130  159.1362 C.3     1  UNL1        0.2525
     16 O         142.5244  144.1500  160.0583 O.3     1  UNL1       -0.4708
     17 C         140.6260  145.5020  161.9473 C.1     1  UNL1        0.1035
     18 N         139.4437  146.2541  161.4120 N.1     1  UNL1       -0.1907
     19 C         140.8791  137.3058  164.6347 C.3     1  UNL1        0.0765
     20 C         139.4747  137.8288  164.5712 C.3     1  UNL1        0.0380
     21 C         138.4055  137.2123  165.4238 C.3     1  UNL1        0.0061
     22 C         139.1393  138.9683  163.6550 C.ar    1  UNL1       -0.0253
     23 C         139.1977  138.7775  162.1684 C.ar    1  UNL1       -0.0044
     24 C         138.8624  139.9169  161.2523 C.ar    1  UNL1        0.0059
     25 C         138.4687  141.2471  161.8229 C.ar    1  UNL1        0.0748
     26 C         138.4103  141.4379  163.3095 C.ar    1  UNL1        0.0233
     27 C         138.7456  140.2985  164.2256 C.ar    1  UNL1       -0.0260
     28 C         138.6873  140.4892  165.7124 C.3     1  UNL1        0.0305
     29 C         137.9920  142.8529  163.5792 C.3     1  UNL1        0.2352
     30 O         137.7918  143.5366  162.2592 O.3     1  UNL1       -0.4404
     31 C         138.0864  142.5442  161.1737 C.2     1  UNL1        0.3413
     32 O         138.0118  142.8034  159.6982 O.2     1  UNL1       -0.2449
@<TRIPOS>BOND
     1    15    16    1
     2    16     9    1
     3     9    10   ar
     4    10    11   ar
     5    11     8    1
     6     8     7    1
     7     7     1    1
     8     1     2    1
     9     2     3    1
    10     3     4    1
    11     4    19    1
    12    19    20    1
    13    20    21    1
    14    20    22    1
    15    22    23   ar
    16    23    24   ar
    17    24    25   ar
    18    25    26   ar
    19    26    27   ar
    20    27    28    1
    21    26    29    1
    22    29    30    1
    23    30    31    1
    24    31    32    2
    25     4     5    1
    26     5     6    1
    27    11    12   ar
    28    12    13   ar
    29    13    14   ar
    30    14    17    1
    31    17    18    3
    32    14     9   ar
    33     6     1    1
    34    27    22   ar
    35    31    25    1
@<TRIPOS>MOLECULE
*****
 32 35 0 0 0
SMALL
GASTEIGER

@<TRIPOS>ATOM
      1 N         139.1033  142.6470  161.3506 N.3     1  UNL1       -0.2700
      2 C         139.6189  141.2401  161.4202 C.3     1  UNL1        0.0897
      3 C         139.2608  140.3669  162.5860 C.3     1  UNL1        0.0897
      4 N         138.3870  140.9006  163.6823 N.3     1  UNL1       -0.2700
      5 C         137.8714  142.3075  163.6127 C.3     1  UNL1        0.0897
      6 C         138.2296  143.1806  162.4468 C.3     1  UNL1        0.0897
      7 C         139.4615  143.5202  160.1848 C.3     1  UNL1        0.0769
      8 C         140.6544  144.4262  160.2647 C.3     1  UNL1        0.0438
      9 C         143.6141  143.2943  162.6539 C.ar    1  UNL1        0.1479
     10 C         142.6970  143.3646  161.4690 C.ar    1  UNL1        0.0334
     11 C         141.5714  144.3559  161.4496 C.ar    1  UNL1       -0.0177
     12 C         141.3630  145.2769  162.6150 C.ar    1  UNL1       -0.0033
     13 C         142.2801  145.2066  163.7999 C.ar    1  UNL1        0.0130
     14 C         143.4056  144.2153  163.8193 C.ar    1  UNL1        0.1023
     15 C         144.6121  141.0086  161.9263 C.3     1  UNL1        0.2525
     16 O         144.7397  142.3030  162.6734 O.3     1  UNL1       -0.4708
     17 C         144.3227  144.1451  165.0043 C.1     1  UNL1        0.1035
     18 N         145.2398  144.0749  166.1892 N.1     1  UNL1       -0.1907
     19 C         138.0289  140.0274  164.8481 C.3     1  UNL1        0.0765
     20 C         139.1111  139.4197  165.6903 C.3     1  UNL1        0.0380
     21 C         139.7987  138.1657  165.2378 C.3     1  UNL1        0.0061
     22 C         139.5059  140.0660  166.9852 C.ar    1  UNL1       -0.0253
     23 C         138.7784  139.7175  168.2498 C.ar    1  UNL1       -0.0044
     24 C         139.1732  140.3638  169.5445 C.ar    1  UNL1        0.0059
     25 C         140.2954  141.3587  169.5747 C.ar    1  UNL1        0.0748
     26 C         141.0228  141.7072  168.3101 C.ar    1  UNL1        0.0233
     27 C         140.6281  141.0609  167.0153 C.ar    1  UNL1       -0.0260
     28 C         141.3556  141.4094  165.7506 C.3     1  UNL1        0.0305
     29 C         142.0806  142.7161  168.6468 C.3     1  UNL1        0.2352
     30 O         142.0068  142.9910  170.1195 O.3     1  UNL1       -0.4404
     31 C         140.9035  142.1521  170.6930 C.2     1  UNL1        0.3413
     32 O         140.4823  142.1134  172.1321 O.2     1  UNL1       -0.2449
@<TRIPOS>BOND
     1    15    16    1
     2    16     9    1
     3     9    10   ar
     4    10    11   ar
     5    11     8    1
     6     8     7    1
     7     7     1    1
     8     1     2    1
     9     2     3    1
    10     3     4    1
    11     4    19    1
    12    19    20    1
    13    20    21    1
    14    20    22    1
    15    22    23   ar
    16    23    24   ar
    17    24    25   ar
    18    25    26   ar
    19    26    27   ar
    20    27    28    1
    21    26    29    1
    22    29    30    1
    23    30    31    1
    24    31    32    2
    25     4     5    1
    26     5     6    1
    27    11    12   ar
    28    12    13   ar
    29    13    14   ar
    30    14    17    1
    31    17    18    3
    32    14     9   ar
    33     6     1    1
    34    27    22   ar
    35    31    25    1
@<TRIPOS>MOLECULE
*****
 32 35 0 0 0
SMALL
GASTEIGER

@<TRIPOS>ATOM
      1 N         142.5590  138.3331  162.4396 N.3     1  UNL1       -0.2700
      2 C         142.7129  138.4470  163.9274 C.3     1  UNL1        0.0897
      3 C         141.5376  138.1942  164.8245 C.3     1  UNL1        0.0897
      4 N         140.2084  137.8275  164.2338 N.3     1  UNL1       -0.2700
      5 C         140.0545  137.7136  162.7460 C.3     1  UNL1        0.0897
      6 C         141.2298  137.9664  161.8490 C.3     1  UNL1        0.0897
      7 C         143.7342  138.5859  161.5425 C.3     1  UNL1        0.0769
      8 C         144.3289  139.9602  161.4546 C.3     1  UNL1        0.0438
      9 C         142.7687  143.6088  161.5108 C.ar    1  UNL1        0.1479
     10 C         143.6400  142.4345  161.8454 C.ar    1  UNL1        0.0334
     11 C         143.4575  141.1344  161.1199 C.ar    1  UNL1       -0.0177
     12 C         142.4037  141.0084  160.0599 C.ar    1  UNL1       -0.0033
     13 C         141.5324  142.1826  159.7254 C.ar    1  UNL1        0.0130
     14 C         141.7149  143.4828  160.4508 C.ar    1  UNL1        0.1023
     15 C         143.2018  144.9140  163.7151 C.3     1  UNL1        0.2525
     16 O         142.9511  144.9090  162.2362 O.3     1  UNL1       -0.4708
     17 C         140.8434  144.6570  160.1161 C.1     1  UNL1        0.1035
     18 N         139.9720  145.8312  159.7814 N.1     1  UNL1       -0.1907
     19 C         139.0331  137.5747  165.1309 C.3     1  UNL1        0.0765
     20 C         138.3403  138.7240  165.8010 C.3     1  UNL1        0.0380
     21 C         137.6182  138.5111  167.0984 C.3     1  UNL1        0.0061
     22 C         138.3696  140.0863  165.1738 C.ar    1  UNL1       -0.0253
     23 C         137.5482  140.3665  163.9504 C.ar    1  UNL1       -0.0044
     24 C         137.5775  141.7288  163.3232 C.ar    1  UNL1        0.0059
     25 C         138.4282  142.8108  163.9194 C.ar    1  UNL1        0.0748
     26 C         139.2496  142.5306  165.1428 C.ar    1  UNL1        0.0233
     27 C         139.2203  141.1684  165.7700 C.ar    1  UNL1       -0.0260
     28 C         140.0417  140.8881  166.9935 C.3     1  UNL1        0.0305
     29 C         139.9866  143.7862  165.5039 C.3     1  UNL1        0.2352
     30 O         139.6207  144.8423  164.5036 O.3     1  UNL1       -0.4404
     31 C         138.6575  144.2396  163.5243 C.2     1  UNL1        0.3413
     32 O         138.0333  144.9422  162.3552 O.2     1  UNL1       -0.2449
@<TRIPOS>BOND
     1    15    16    1
     2    16     9    1
     3     9    10   ar
     4    10    11   ar
     5    11     8    1
     6     8     7    1
     7     7     1    1
     8     1     2    1
     9     2     3    1
    10     3     4    1
    11     4    19    1
    12    19    20    1
    13    20    21    1
    14    20    22    1
    15    22    23   ar
    16    23    24   ar
    17    24    25   ar
    18    25    26   ar
    19    26    27   ar
    20    27    28    1
    21    26    29    1
    22    29    30    1
    23    30    31    1
    24    31    32    2
    25     4     5    1
    26     5     6    1
    27    11    12   ar
    28    12    13   ar
    29    13    14   ar
    30    14    17    1
    31    17    18    3
    32    14     9   ar
    33     6     1    1
    34    27    22   ar
    35    31    25    1
@<TRIPOS>MOLECULE
*****
 32 35 0 0 0
SMALL
GASTEIGER

@<TRIPOS>ATOM
      1 N         141.1304  138.1825  160.9847 N.3     1  UNL1       -0.2700
      2 C         139.6305  138.1615  160.9818 C.3     1  UNL1        0.0897
      3 C         138.8803  137.9944  162.2699 C.3     1  UNL1        0.0897
      4 N         139.6300  137.8483  163.5609 N.3     1  UNL1       -0.2700
      5 C         141.1299  137.8693  163.5638 C.3     1  UNL1        0.0897
      6 C         141.8800  138.0364  162.2757 C.3     1  UNL1        0.0897
      7 C         141.8806  138.3496  159.6966 C.3     1  UNL1        0.0769
      8 C         142.1204  139.7220  159.1408 C.3     1  UNL1        0.0438
      9 C         144.2037  141.9832  161.6501 C.ar    1  UNL1        0.1479
     10 C         143.8322  140.8566  160.7320 C.ar    1  UNL1        0.0334
     11 C         142.4918  140.8486  160.0588 C.ar    1  UNL1       -0.0177
     12 C         141.5228  141.9672  160.3036 C.ar    1  UNL1       -0.0033
     13 C         141.8943  143.0938  161.2216 C.ar    1  UNL1        0.0130
     14 C         143.2347  143.1018  161.8949 C.ar    1  UNL1        0.1023
     15 C         145.6987  141.4005  163.6934 C.3     1  UNL1        0.2525
     16 O         145.5441  141.9913  162.3234 O.3     1  UNL1       -0.4708
     17 C         143.6061  144.2284  162.8129 C.1     1  UNL1        0.1035
     18 N         143.9774  145.3550  163.7311 N.1     1  UNL1       -0.1907
     19 C         138.8798  137.6812  164.8490 C.3     1  UNL1        0.0765
     20 C         138.4081  138.8884  165.6042 C.3     1  UNL1        0.0380
     21 C         137.8149  138.7322  166.9730 C.3     1  UNL1        0.0061
     22 C         138.5296  140.2518  164.9905 C.ar    1  UNL1       -0.0253
     23 C         137.5431  140.6976  163.9523 C.ar    1  UNL1       -0.0044
     24 C         137.6645  142.0609  163.3387 C.ar    1  UNL1        0.0059
     25 C         138.7726  142.9784  163.7633 C.ar    1  UNL1        0.0748
     26 C         139.7592  142.5326  164.8015 C.ar    1  UNL1        0.0233
     27 C         139.6377  141.1693  165.4152 C.ar    1  UNL1       -0.0260
     28 C         140.6243  140.7235  166.4534 C.3     1  UNL1        0.0305
     29 C         140.7392  143.6473  165.0186 C.3     1  UNL1        0.2352
     30 O         140.3583  144.7819  164.1145 O.3     1  UNL1       -0.4404
     31 C         139.1429  144.3686  163.3386 C.2     1  UNL1        0.3413
     32 O         138.4240  145.1995  162.3175 O.2     1  UNL1       -0.2449
@<TRIPOS>BOND
     1    15    16    1
     2    16     9    1
     3     9    10   ar
     4    10    11   ar
     5    11     8    1
     6     8     7    1
     7     7     1    1
     8     1     2    1
     9     2     3    1
    10     3     4    1
    11     4    19    1
    12    19    20    1
    13    20    21    1
    14    20    22    1
    15    22    23   ar
    16    23    24   ar
    17    24    25   ar
    18    25    26   ar
    19    26    27   ar
    20    27    28    1
    21    26    29    1
    22    29    30    1
    23    30    31    1
    24    31    32    2
    25     4     5    1
    26     5     6    1
    27    11    12   ar
    28    12    13   ar
    29    13    14   ar
    30    14    17    1
    31    17    18    3
    32    14     9   ar
    33     6     1    1
    34    27    22   ar
    35    31    25    1
@<TRIPOS>MOLECULE
*****
 32 35 0 0 0
SMALL
GASTEIGER

@<TRIPOS>ATOM
      1 N         138.3480  140.6651  160.6582 N.3     1  UNL1       -0.2700
      2 C         137.5948  140.4502  161.9374 C.3     1  UNL1        0.0897
      3 C         137.4115  141.5862  162.8997 C.3     1  UNL1        0.0897
      4 N         137.9815  142.9370  162.5827 N.3     1  UNL1       -0.2700
      5 C         138.7348  143.1518  161.3035 C.3     1  UNL1        0.0897
      6 C         138.9180  142.0158  160.3412 C.3     1  UNL1        0.0897
      7 C         138.5313  139.5291  159.6959 C.3     1  UNL1        0.0769
      8 C         139.7332  138.6385  159.8069 C.3     1  UNL1        0.0438
      9 C         140.6816  137.7907  163.5661 C.ar    1  UNL1        0.1479
     10 C         139.9151  137.8589  162.2785 C.ar    1  UNL1        0.0334
     11 C         140.4998  138.5703  161.0944 C.ar    1  UNL1       -0.0177
     12 C         141.8510  139.2134  161.1978 C.ar    1  UNL1       -0.0033
     13 C         142.6175  139.1451  162.4854 C.ar    1  UNL1        0.0130
     14 C         142.0328  138.4338  163.6695 C.ar    1  UNL1        0.1023
     15 C         138.8462  137.5990  165.3948 C.3     1  UNL1        0.2525
     16 O         140.0970  137.0793  164.7503 O.3     1  UNL1       -0.4708
     17 C         142.7994  138.3656  164.9571 C.1     1  UNL1        0.1035
     18 N         143.5661  138.2974  166.2445 N.1     1  UNL1       -0.1907
     19 C         137.7983  144.0730  163.5450 C.3     1  UNL1        0.0765
     20 C         138.8087  144.3086  164.6282 C.3     1  UNL1        0.0380
     21 C         138.4415  145.1254  165.8316 C.3     1  UNL1        0.0061
     22 C         140.1864  143.7275  164.5082 C.ar    1  UNL1       -0.0253
     23 C         140.5296  142.4566  165.2270 C.ar    1  UNL1       -0.0044
     24 C         141.9072  141.8755  165.1070 C.ar    1  UNL1        0.0059
     25 C         142.9417  142.5654  164.2681 C.ar    1  UNL1        0.0748
     26 C         142.5985  143.8364  163.5491 C.ar    1  UNL1        0.0233
     27 C         141.2209  144.4175  163.6692 C.ar    1  UNL1       -0.0260
     28 C         140.8777  145.6885  162.9503 C.3     1  UNL1        0.0305
     29 C         143.8170  144.2890  162.8004 C.3     1  UNL1        0.2352
     30 O         144.9131  143.2976  163.0566 O.3     1  UNL1       -0.4404
     31 C         144.3722  142.2324  163.9636 C.2     1  UNL1        0.3413
     32 O         145.1290  141.0430  164.4762 O.2     1  UNL1       -0.2449
@<TRIPOS>BOND
     1    15    16    1
     2    16     9    1
     3     9    10   ar
     4    10    11   ar
     5    11     8    1
     6     8     7    1
     7     7     1    1
     8     1     2    1
     9     2     3    1
    10     3     4    1
    11     4    19    1
    12    19    20    1
    13    20    21    1
    14    20    22    1
    15    22    23   ar
    16    23    24   ar
    17    24    25   ar
    18    25    26   ar
    19    26    27   ar
    20    27    28    1
    21    26    29    1
    22    29    30    1
    23    30    31    1
    24    31    32    2
    25     4     5    1
    26     5     6    1
    27    11    12   ar
    28    12    13   ar
    29    13    14   ar
    30    14    17    1
    31    17    18    3
    32    14     9   ar
    33     6     1    1
    34    27    22   ar
    35    31    25    1
@<TRIPOS>MOLECULE
*****
 32 35 0 0 0
SMALL
GASTEIGER

@<TRIPOS>ATOM
      1 N         143.7887  139.7989  163.4907 N.3     1  UNL1       -0.2700
      2 C         143.9929  140.9415  164.4408 C.3     1  UNL1        0.0897
      3 C         143.3412  140.9193  165.7916 C.3     1  UNL1        0.0897
      4 N         142.4853  139.7544  166.1923 N.3     1  UNL1       -0.2700
      5 C         142.2811  138.6118  165.2422 C.3     1  UNL1        0.0897
      6 C         142.9328  138.6340  163.8914 C.3     1  UNL1        0.0897
      7 C         144.4405  139.8210  162.1399 C.3     1  UNL1        0.0769
      8 C         143.6696  140.2930  160.9427 C.3     1  UNL1        0.0438
      9 C         142.6238  144.0301  161.7736 C.ar    1  UNL1        0.1479
     10 C         143.4306  142.7679  161.6962 C.ar    1  UNL1        0.0334
     11 C         142.8628  141.5552  161.0201 C.ar    1  UNL1       -0.0177
     12 C         141.4883  141.6047  160.4216 C.ar    1  UNL1       -0.0033
     13 C         140.6816  142.8669  160.4990 C.ar    1  UNL1        0.0130
     14 C         141.2494  144.0796  161.1750 C.ar    1  UNL1        0.1023
     15 C         143.7024  145.1470  163.8567 C.3     1  UNL1        0.2525
     16 O         143.1915  145.2429  162.4496 O.3     1  UNL1       -0.4708
     17 C         140.4425  145.3418  161.2524 C.1     1  UNL1        0.1035
     18 N         139.6358  146.6040  161.3297 N.1     1  UNL1       -0.1907
     19 C         141.8335  139.7322  167.5431 C.3     1  UNL1        0.0765
     20 C         140.4631  140.3145  167.7243 C.3     1  UNL1        0.0380
     21 C         139.7472  140.1546  169.0327 C.3     1  UNL1        0.0061
     22 C         139.8084  141.0567  166.5969 C.ar    1  UNL1       -0.0253
     23 C         139.9937  142.5395  166.4676 C.ar    1  UNL1       -0.0044
     24 C         139.3391  143.2816  165.3404 C.ar    1  UNL1        0.0059
     25 C         138.4993  142.5409  164.3424 C.ar    1  UNL1        0.0748
     26 C         138.3140  141.0580  164.4717 C.ar    1  UNL1        0.0233
     27 C         138.9686  140.3158  165.5990 C.ar    1  UNL1       -0.0260
     28 C         138.7834  138.8329  165.7283 C.3     1  UNL1        0.0305
     29 C         137.4362  140.6004  163.3447 C.3     1  UNL1        0.2352
     30 O         137.0789  141.8006  162.5189 O.3     1  UNL1       -0.4404
     31 C         137.7359  142.9998  163.1355 C.2     1  UNL1        0.3413
     32 O         137.6454  144.4104  162.6333 O.2     1  UNL1       -0.2449
@<TRIPOS>BOND
     1    15    16    1
     2    16     9    1
     3     9    10   ar
     4    10    11   ar
     5    11     8    1
     6     8     7    1
     7     7     1    1
     8     1     2    1
     9     2     3    1
    10     3     4    1
    11     4    19    1
    12    19    20    1
    13    20    21    1
    14    20    22    1
    15    22    23   ar
    16    23    24   ar
    17    24    25   ar
    18    25    26   ar
    19    26    27   ar
    20    27    28    1
    21    26    29    1
    22    29    30    1
    23    30    31    1
    24    31    32    2
    25     4     5    1
    26     5     6    1
    27    11    12   ar
    28    12    13   ar
    29    13    14   ar
    30    14    17    1
    31    17    18    3
    32    14     9   ar
    33     6     1    1
    34    27    22   ar
    35    31    25    1
@<TRIPOS>MOLECULE
*****
 32 35 0 0 0
SMALL
GASTEIGER

@<TRIPOS>ATOM
      1 N         143.9559  140.2260  163.8164 N.3     1  UNL1       -0.2700
      2 C         143.1526  138.9957  164.1181 C.3     1  UNL1        0.0897
      3 C         142.4157  138.8815  165.4196 C.3     1  UNL1        0.0897
      4 N         142.4822  139.9978  166.4194 N.3     1  UNL1       -0.2700
      5 C         143.2855  141.2281  166.1178 C.3     1  UNL1        0.0897
      6 C         144.0224  141.3422  164.8163 C.3     1  UNL1        0.0897
      7 C         144.6929  140.3402  162.5149 C.3     1  UNL1        0.0769
      8 C         143.9527  140.7104  161.2639 C.3     1  UNL1        0.0438
      9 C         140.7770  143.0142  160.6662 C.ar    1  UNL1        0.1479
     10 C         141.6734  141.8115  160.6793 C.ar    1  UNL1        0.0334
     11 C         143.0565  141.9131  161.2508 C.ar    1  UNL1       -0.0177
     12 C         143.5433  143.2174  161.8092 C.ar    1  UNL1       -0.0033
     13 C         142.6470  144.4201  161.7960 C.ar    1  UNL1        0.0130
     14 C         141.2639  144.3185  161.2245 C.ar    1  UNL1        0.1023
     15 C         139.1650  142.1689  158.8123 C.3     1  UNL1        0.2525
     16 O         139.3939  142.9126  160.0947 O.3     1  UNL1       -0.4708
     17 C         140.3676  145.5212  161.2115 C.1     1  UNL1        0.1035
     18 N         139.4713  146.7239  161.1983 N.1     1  UNL1       -0.1907
     19 C         141.7452  139.8836  167.7209 C.3     1  UNL1        0.0765
     20 C         140.3490  140.4183  167.8416 C.3     1  UNL1        0.0380
     21 C         139.5790  140.2245  169.1142 C.3     1  UNL1        0.0061
     22 C         139.7226  141.1468  166.6896 C.ar    1  UNL1       -0.0253
     23 C         139.8825  142.6330  166.5660 C.ar    1  UNL1       -0.0044
     24 C         139.2562  143.3615  165.4140 C.ar    1  UNL1        0.0059
     25 C         138.4700  142.6037  164.3857 C.ar    1  UNL1        0.0748
     26 C         138.3101  141.1174  164.5093 C.ar    1  UNL1        0.0233
     27 C         138.9364  140.3889  165.6612 C.ar    1  UNL1       -0.0260
     28 C         138.7765  138.9025  165.7849 C.3     1  UNL1        0.0305
     29 C         137.4850  140.6419  163.3503 C.3     1  UNL1        0.2352
     30 O         137.1350  141.8344  162.5104 O.3     1  UNL1       -0.4404
     31 C         137.7437  143.0469  163.1503 C.2     1  UNL1        0.3413
     32 O         137.6438  144.4552  162.6437 O.2     1  UNL1       -0.2449
@<TRIPOS>BOND
     1    15    16    1
     2    16     9    1
     3     9    10   ar
     4    10    11   ar
     5    11     8    1
     6     8     7    1
     7     7     1    1
     8     1     2    1
     9     2     3    1
    10     3     4    1
    11     4    19    1
    12    19    20    1
    13    20    21    1
    14    20    22    1
    15    22    23   ar
    16    23    24   ar
    17    24    25   ar
    18    25    26   ar
    19    26    27   ar
    20    27    28    1
    21    26    29    1
    22    29    30    1
    23    30    31    1
    24    31    32    2
    25     4     5    1
    26     5     6    1
    27    11    12   ar
    28    12    13   ar
    29    13    14   ar
    30    14    17    1
    31    17    18    3
    32    14     9   ar
    33     6     1    1
    34    27    22   ar
    35    31    25    1
