@<TRIPOS>MOLECULE
*****
 41 47 0 0 0
SMALL
GASTEIGER

@<TRIPOS>ATOM
      1 C         142.3167  142.7263  160.2296 C.3     1  UNL1        0.1707
      2 N         141.8124  143.3358  158.9551 N.3     1  UNL1       -0.2797
      3 C         140.6241  144.2507  158.9802 C.3     1  UNL1        0.1167
      4 C         139.9400  144.5562  160.2797 C.3     1  UNL1        0.0511
      5 C         140.4443  143.9468  161.5542 C.2     1  UNL1       -0.0037
      6 C         141.6327  143.0318  161.5291 C.2     1  UNL1        0.0800
      7 N         141.9012  142.5823  162.9347 N.2     1  UNL1       -0.2519
      8 C         140.8788  143.2193  163.8285 C.2     1  UNL1        0.0627
      9 C         140.6514  143.1404  165.3090 C.3     1  UNL1        0.0717
     10 C         139.5235  143.9049  165.9363 C.2     1  UNL1       -0.0198
     11 C         138.6231  144.7483  165.0831 C.2     1  UNL1       -0.0042
     12 C         138.8505  144.8271  163.6026 C.2     1  UNL1        0.0006
     13 C         139.9784  144.0627  162.9753 C.2     1  UNL1        0.0111
     14 H         141.5761  142.5631  158.3326 H       1  UNL1        0.1246
     15 C         143.1604  141.9126  161.1657 C.ar    1  UNL1        0.2493
     16 N         142.8691  140.5153  161.6263 N.ar    1  UNL1       -0.1285
     17 N         143.9722  140.0926  162.5509 N.ar    1  UNL1       -0.1809
     18 C         144.0827  138.7665  163.2431 C.3     1  UNL1        0.1605
     19 C         144.9451  141.2288  162.6615 C.ar    1  UNL1        0.4389
     20 O         146.1996  141.2384  163.4839 O.2     1  UNL1       -0.2210
     21 O         144.4434  142.3537  161.8054 O.2     1  UNL1       -0.3896
     22 C         140.1197  144.8602  157.7057 C.ar    1  UNL1        0.1319
     23 N         140.3577  146.2684  157.2473 N.ar    1  UNL1       -0.2282
     24 C         139.6739  146.4470  155.9242 C.ar    1  UNL1        0.1171
     25 C         139.0133  145.1491  155.5649 C.ar    1  UNL1        0.0942
     26 N         139.2888  144.1684  156.6660 N.ar    1  UNL1       -0.3385
     27 H         138.9788  143.2346  156.7002 H       1  UNL1        0.1672
     28 C         139.6542  147.7030  155.1044 C.ar    1  UNL1        0.1006
     29 C         140.3045  147.7267  153.7528 C.ar    1  UNL1        0.0230
     30 C         140.2848  148.9826  152.9330 C.ar    1  UNL1        0.0328
     31 C         139.6149  150.2149  153.4647 C.ar    1  UNL1        0.1592
     32 F         139.5952  151.4709  152.6448 F       1  UNL1       -0.2025
     33 C         138.9646  150.1912  154.8162 C.ar    1  UNL1        0.1284
     34 N         138.9843  148.9353  155.6361 N.ar    1  UNL1       -0.2399
     35 N         145.0913  141.9133  157.6400 N.ar    1  UNL1       -0.2497
     36 C         144.3438  142.8931  158.4951 C.ar    1  UNL1        0.0944
     37 C         143.2938  142.1382  159.2552 C.ar    1  UNL1        0.0439
     38 C         143.3924  140.6919  158.8698 C.ar    1  UNL1        0.1194
     39 N         144.5034  140.5529  157.8715 N.ar    1  UNL1       -0.1679
     40 C         147.4606  142.9048  157.2480 C.3     1  UNL1        0.0284
     41 C         146.2274  142.2371  156.7155 C.3     1  UNL1        0.1276
@<TRIPOS>BOND
     1    40    41    1
     2    41    35    1
     3    35    36   ar
     4    36    37   ar
     5    37     1    1
     6     1    15    1
     7    15    16   ar
     8    16    17   ar
     9    17    18    1
    10    17    19   ar
    11    19    20    2
    12    19    21   ar
    13     1     2    1
    14     2     3    1
    15     3    22    1
    16    22    23   ar
    17    23    24   ar
    18    24    28    1
    19    28    29   ar
    20    29    30   ar
    21    30    31   ar
    22    31    32    1
    23    31    33   ar
    24    33    34   ar
    25    24    25   ar
    26    25    26   ar
    27     3     4    1
    28     4     5    1
    29     5     6    2
    30     6     7    1
    31     7     8    2
    32     8     9    1
    33     9    10    1
    34    10    11    2
    35    11    12    1
    36    12    13    2
    37    37    38   ar
    38    38    39   ar
    39    39    35   ar
    40     6     1    1
    41    13     8    1
    42    21    15   ar
    43    26    22   ar
    44    13     5    1
    45    34    28   ar
    46     2    14    1
    47    26    27    1
@<TRIPOS>MOLECULE
*****
 41 47 0 0 0
SMALL
GASTEIGER

@<TRIPOS>ATOM
      1 C         140.8843  141.2407  159.8688 C.3     1  UNL1        0.1707
      2 N         141.1924  140.1585  158.8769 N.3     1  UNL1       -0.2797
      3 C         142.4808  139.3966  158.9741 C.3     1  UNL1        0.1167
      4 C         143.4611  139.7169  160.0633 C.3     1  UNL1        0.0511
      5 C         143.1531  140.7991  161.0553 C.2     1  UNL1       -0.0037
      6 C         141.8647  141.5610  160.9580 C.2     1  UNL1        0.0800
      7 N         141.8357  142.5665  162.0707 N.2     1  UNL1       -0.2519
      8 C         143.1062  142.4260  162.8556 C.2     1  UNL1        0.0627
      9 C         143.6269  143.1517  164.0607 C.3     1  UNL1        0.0717
     10 C         144.9618  142.7850  164.6382 C.2     1  UNL1       -0.0198
     11 C         145.7760  141.6926  164.0106 C.2     1  UNL1       -0.0042
     12 C         145.2553  140.9670  162.8055 C.2     1  UNL1        0.0006
     13 C         143.9204  141.3337  162.2280 C.2     1  UNL1        0.0111
     14 H         141.1755  140.5918  157.9536 H       1  UNL1        0.1246
     15 C         140.1468  142.3449  160.5667 C.ar    1  UNL1        0.2493
     16 N         139.1115  142.1738  161.6384 N.ar    1  UNL1       -0.1285
     17 N         138.6401  143.5372  162.0494 N.ar    1  UNL1       -0.1809
     18 C         137.6062  143.8346  163.0946 C.3     1  UNL1        0.1605
     19 C         139.3842  144.5509  161.2316 C.ar    1  UNL1        0.4389
     20 O         139.2250  146.0401  161.3155 O.2     1  UNL1       -0.2210
     21 O         140.3154  143.8140  160.3152 O.2     1  UNL1       -0.3896
     22 C         142.7889  138.3143  157.9822 C.ar    1  UNL1        0.1319
     23 N         142.3763  136.8762  158.0899 N.ar    1  UNL1       -0.2282
     24 C         142.8961  136.1533  156.8827 C.ar    1  UNL1        0.1171
     25 C         143.6298  137.1446  156.0290 C.ar    1  UNL1        0.0942
     26 N         143.5635  138.4802  156.7085 N.ar    1  UNL1       -0.3385
     27 H         143.9591  139.3185  156.3767 H       1  UNL1        0.1672
     28 C         142.7140  134.6950  156.5821 C.ar    1  UNL1        0.1006
     29 C         143.5604  133.6735  157.2822 C.ar    1  UNL1        0.0230
     30 C         143.3784  132.2153  156.9817 C.ar    1  UNL1        0.0328
     31 C         142.3500  131.7785  155.9809 C.ar    1  UNL1        0.1592
     32 F         142.1679  130.3202  155.6803 F       1  UNL1       -0.2025
     33 C         141.5036  132.8000  155.2808 C.ar    1  UNL1        0.1284
     34 N         141.6856  134.2582  155.5814 N.ar    1  UNL1       -0.2399
     35 N         137.9774  142.0521  157.4281 N.ar    1  UNL1       -0.2497
     36 C         139.2971  142.3945  158.0537 C.ar    1  UNL1        0.0944
     37 C         139.6478  141.3039  159.0220 C.ar    1  UNL1        0.0439
     38 C         138.5450  140.2875  158.9948 C.ar    1  UNL1        0.1194
     39 N         137.5126  140.7500  158.0097 N.ar    1  UNL1       -0.1679
     40 C         136.2731  142.2095  155.4735 C.3     1  UNL1        0.0284
     41 C         137.2503  142.8687  156.4012 C.3     1  UNL1        0.1276
@<TRIPOS>BOND
     1    40    41    1
     2    41    35    1
     3    35    36   ar
     4    36    37   ar
     5    37     1    1
     6     1    15    1
     7    15    16   ar
     8    16    17   ar
     9    17    18    1
    10    17    19   ar
    11    19    20    2
    12    19    21   ar
    13     1     2    1
    14     2     3    1
    15     3    22    1
    16    22    23   ar
    17    23    24   ar
    18    24    28    1
    19    28    29   ar
    20    29    30   ar
    21    30    31   ar
    22    31    32    1
    23    31    33   ar
    24    33    34   ar
    25    24    25   ar
    26    25    26   ar
    27     3     4    1
    28     4     5    1
    29     5     6    2
    30     6     7    1
    31     7     8    2
    32     8     9    1
    33     9    10    1
    34    10    11    2
    35    11    12    1
    36    12    13    2
    37    37    38   ar
    38    38    39   ar
    39    39    35   ar
    40     6     1    1
    41    13     8    1
    42    21    15   ar
    43    26    22   ar
    44    13     5    1
    45    34    28   ar
    46     2    14    1
    47    26    27    1
@<TRIPOS>MOLECULE
*****
 41 47 0 0 0
SMALL
GASTEIGER

@<TRIPOS>ATOM
      1 C         141.3143  141.3174  160.3984 C.3     1  UNL1        0.1707
      2 N         141.8286  140.4213  159.3110 N.3     1  UNL1       -0.2797
      3 C         141.7073  138.9324  159.4461 C.3     1  UNL1        0.1167
      4 C         141.0718  138.3395  160.6687 C.3     1  UNL1        0.0511
      5 C         140.5575  139.2356  161.7561 C.2     1  UNL1       -0.0037
      6 C         140.6788  140.7245  161.6210 C.2     1  UNL1        0.0800
      7 N         140.0849  141.3511  162.8476 N.2     1  UNL1       -0.2519
      8 C         139.5965  140.2494  163.7408 C.2     1  UNL1        0.0627
      9 C         138.9237  140.2679  165.0813 C.3     1  UNL1        0.0717
     10 C         138.5429  138.9789  165.7471 C.2     1  UNL1       -0.0198
     11 C         138.8350  137.6714  165.0725 C.2     1  UNL1       -0.0042
     12 C         139.5079  137.6529  163.7320 C.2     1  UNL1        0.0006
     13 C         139.8887  138.9419  163.0662 C.2     1  UNL1        0.0111
     14 H         142.8219  140.6274  159.2048 H       1  UNL1        0.1246
     15 C         140.9805  142.5706  161.1523 C.ar    1  UNL1        0.2493
     16 N         141.8661  143.2657  162.1433 N.ar    1  UNL1       -0.1285
     17 N         141.1352  144.4733  162.6509 N.ar    1  UNL1       -0.1809
     18 C         141.6512  145.4570  163.6589 C.3     1  UNL1        0.1605
     19 C         139.7980  144.5245  161.9735 C.ar    1  UNL1        0.4389
     20 O         138.7417  145.5684  162.1851 O.2     1  UNL1       -0.2210
     21 O         139.7023  143.3485  161.0472 O.2     1  UNL1       -0.3896
     22 C         142.2216  138.0362  158.3587 C.ar    1  UNL1        0.1319
     23 N         142.5876  136.5893  158.5081 N.ar    1  UNL1       -0.2282
     24 C         143.0524  136.0884  157.1727 C.ar    1  UNL1        0.1171
     25 C         142.9737  137.2259  156.1981 C.ar    1  UNL1        0.0942
     26 N         142.4602  138.4297  156.9310 N.ar    1  UNL1       -0.3385
     27 H         142.3068  139.3215  156.5432 H       1  UNL1        0.1672
     28 C         143.5147  134.6948  156.8659 C.ar    1  UNL1        0.1006
     29 C         143.2910  134.1138  155.5012 C.ar    1  UNL1        0.0230
     30 C         143.7533  132.7202  155.1944 C.ar    1  UNL1        0.0328
     31 C         144.4393  131.9077  156.2522 C.ar    1  UNL1        0.1592
     32 F         144.9016  130.5140  155.9454 F       1  UNL1       -0.2025
     33 C         144.6630  132.4887  157.6169 C.ar    1  UNL1        0.1284
     34 N         144.2007  133.8822  157.9237 N.ar    1  UNL1       -0.2399
     35 N         141.9490  143.9943  157.6604 N.ar    1  UNL1       -0.2497
     36 C         141.0316  143.0577  158.3893 C.ar    1  UNL1        0.0944
     37 C         141.8339  142.3455  159.4377 C.ar    1  UNL1        0.0439
     38 C         143.2471  142.8420  159.3568 C.ar    1  UNL1        0.1194
     39 N         143.3182  143.8610  158.2583 N.ar    1  UNL1       -0.1679
     40 C         140.6436  146.0617  156.7818 C.3     1  UNL1        0.0284
     41 C         141.5646  144.9044  156.5317 C.3     1  UNL1        0.1276
@<TRIPOS>BOND
     1    40    41    1
     2    41    35    1
     3    35    36   ar
     4    36    37   ar
     5    37     1    1
     6     1    15    1
     7    15    16   ar
     8    16    17   ar
     9    17    18    1
    10    17    19   ar
    11    19    20    2
    12    19    21   ar
    13     1     2    1
    14     2     3    1
    15     3    22    1
    16    22    23   ar
    17    23    24   ar
    18    24    28    1
    19    28    29   ar
    20    29    30   ar
    21    30    31   ar
    22    31    32    1
    23    31    33   ar
    24    33    34   ar
    25    24    25   ar
    26    25    26   ar
    27     3     4    1
    28     4     5    1
    29     5     6    2
    30     6     7    1
    31     7     8    2
    32     8     9    1
    33     9    10    1
    34    10    11    2
    35    11    12    1
    36    12    13    2
    37    37    38   ar
    38    38    39   ar
    39    39    35   ar
    40     6     1    1
    41    13     8    1
    42    21    15   ar
    43    26    22   ar
    44    13     5    1
    45    34    28   ar
    46     2    14    1
    47    26    27    1
@<TRIPOS>MOLECULE
*****
 41 47 0 0 0
SMALL
GASTEIGER

@<TRIPOS>ATOM
      1 C         141.1095  140.2438  159.7462 C.3     1  UNL1        0.1707
      2 N         141.6626  139.0037  159.1089 N.3     1  UNL1       -0.2797
      3 C         142.3348  139.0842  157.7704 C.3     1  UNL1        0.1167
      4 C         142.4539  140.4048  157.0691 C.3     1  UNL1        0.0511
      5 C         141.9008  141.6449  157.7064 C.2     1  UNL1       -0.0037
      6 C         141.2286  141.5645  159.0449 C.2     1  UNL1        0.0800
      7 N         140.7826  142.9457  159.4233 N.2     1  UNL1       -0.2519
      8 C         141.1791  143.8798  158.3187 C.2     1  UNL1        0.0627
      9 C         141.0001  145.3586  158.1420 C.3     1  UNL1        0.0717
     10 C         141.5123  146.0334  156.9042 C.2     1  UNL1       -0.0198
     11 C         142.2034  145.2295  155.8430 C.2     1  UNL1       -0.0042
     12 C         142.3824  143.7507  156.0197 C.2     1  UNL1        0.0006
     13 C         141.8702  143.0759  157.2575 C.2     1  UNL1        0.0111
     14 H         140.8845  138.3519  159.0089 H       1  UNL1        0.1246
     15 C         140.4335  141.1326  160.7478 C.ar    1  UNL1        0.2493
     16 N         141.1107  141.9008  161.8436 N.ar    1  UNL1       -0.1285
     17 N         140.0572  142.6522  162.6024 N.ar    1  UNL1       -0.1809
     18 C         140.2911  143.5498  163.7812 C.3     1  UNL1        0.1605
     19 C         138.7289  142.3482  161.9755 C.ar    1  UNL1        0.4389
     20 O         137.4012  142.8885  162.4172 O.2     1  UNL1       -0.2210
     21 O         138.9614  141.4090  160.8292 O.2     1  UNL1       -0.3896
     22 C         142.8880  137.8440  157.1331 C.ar    1  UNL1        0.1319
     23 N         142.5753  136.4326  157.5332 N.ar    1  UNL1       -0.2282
     24 C         143.3449  135.5138  156.6312 C.ar    1  UNL1        0.1171
     25 C         144.1333  136.3574  155.6738 C.ar    1  UNL1        0.0942
     26 N         143.8509  137.7976  155.9840 N.ar    1  UNL1       -0.3385
     27 H         144.2308  138.5757  155.5155 H       1  UNL1        0.1672
     28 C         143.3290  134.0146  156.6785 C.ar    1  UNL1        0.1006
     29 C         142.2955  133.2508  155.9049 C.ar    1  UNL1        0.0230
     30 C         142.2795  131.7517  155.9521 C.ar    1  UNL1        0.0328
     31 C         143.2970  131.0163  156.7730 C.ar    1  UNL1        0.1592
     32 F         143.2811  129.5171  156.8203 F       1  UNL1       -0.2025
     33 C         144.3305  131.7801  157.5466 C.ar    1  UNL1        0.1284
     34 N         144.3465  133.2792  157.4994 N.ar    1  UNL1       -0.2399
     35 N         140.8503  137.8261  162.7715 N.ar    1  UNL1       -0.2497
     36 C         141.5821  138.8821  161.9973 C.ar    1  UNL1        0.0944
     37 C         140.7557  139.2319  160.7953 C.ar    1  UNL1        0.0439
     38 C         139.5132  138.3920  160.8267 C.ar    1  UNL1        0.1194
     39 N         139.5717  137.5232  162.0481 N.ar    1  UNL1       -0.1679
     40 C         142.0086  138.0095  165.0899 C.3     1  UNL1        0.0284
     41 C         141.3156  137.1854  164.0456 C.3     1  UNL1        0.1276
@<TRIPOS>BOND
     1    40    41    1
     2    41    35    1
     3    35    36   ar
     4    36    37   ar
     5    37     1    1
     6     1    15    1
     7    15    16   ar
     8    16    17   ar
     9    17    18    1
    10    17    19   ar
    11    19    20    2
    12    19    21   ar
    13     1     2    1
    14     2     3    1
    15     3    22    1
    16    22    23   ar
    17    23    24   ar
    18    24    28    1
    19    28    29   ar
    20    29    30   ar
    21    30    31   ar
    22    31    32    1
    23    31    33   ar
    24    33    34   ar
    25    24    25   ar
    26    25    26   ar
    27     3     4    1
    28     4     5    1
    29     5     6    2
    30     6     7    1
    31     7     8    2
    32     8     9    1
    33     9    10    1
    34    10    11    2
    35    11    12    1
    36    12    13    2
    37    37    38   ar
    38    38    39   ar
    39    39    35   ar
    40     6     1    1
    41    13     8    1
    42    21    15   ar
    43    26    22   ar
    44    13     5    1
    45    34    28   ar
    46     2    14    1
    47    26    27    1
@<TRIPOS>MOLECULE
*****
 41 47 0 0 0
SMALL
GASTEIGER

@<TRIPOS>ATOM
      1 C         142.0205  141.1601  159.8929 C.3     1  UNL1        0.1707
      2 N         142.0308  139.7997  159.2612 N.3     1  UNL1       -0.2797
      3 C         141.5435  139.6227  157.8536 C.3     1  UNL1        0.1167
      4 C         141.0459  140.8062  157.0778 C.3     1  UNL1        0.0511
      5 C         141.0356  142.1666  157.7095 C.2     1  UNL1       -0.0037
      6 C         141.5229  142.3436  159.1171 C.2     1  UNL1        0.0800
      7 N         141.3947  143.7951  159.4729 N.2     1  UNL1       -0.2519
      8 C         140.8281  144.5152  158.2852 C.2     1  UNL1        0.0627
      9 C         140.4855  145.9573  158.0554 C.3     1  UNL1        0.0717
     10 C         139.9211  146.3930  156.7357 C.2     1  UNL1       -0.0198
     11 C         139.6992  145.3865  155.6459 C.2     1  UNL1       -0.0042
     12 C         140.0417  143.9444  155.8757 C.2     1  UNL1        0.0006
     13 C         140.6062  143.5087  157.1954 C.2     1  UNL1        0.0111
     14 H         141.4555  139.1973  159.8499 H       1  UNL1        0.1246
     15 C         142.2053  142.2399  160.9177 C.ar    1  UNL1        0.2493
     16 N         141.2120  142.6369  161.9690 N.ar    1  UNL1       -0.1285
     17 N         141.8088  143.7546  162.7720 N.ar    1  UNL1       -0.1809
     18 C         141.1576  144.4554  163.9273 C.3     1  UNL1        0.1605
     19 C         143.1709  144.0482  162.2169 C.ar    1  UNL1        0.4389
     20 O         144.1212  145.0943  162.7196 O.2     1  UNL1       -0.2210
     21 O         143.4161  143.1120  161.0708 O.2     1  UNL1       -0.3896
     22 C         141.5538  138.2622  157.2218 C.ar    1  UNL1        0.1319
     23 N         142.5794  137.1918  157.4503 N.ar    1  UNL1       -0.2282
     24 C         142.1998  136.0014  156.6204 C.ar    1  UNL1        0.1171
     25 C         140.9395  136.3361  155.8790 C.ar    1  UNL1        0.0942
     26 N         140.5403  137.7334  156.2507 N.ar    1  UNL1       -0.3385
     27 H         139.7515  138.2183  155.9161 H       1  UNL1        0.1672
     28 C         142.9489  134.7040  156.5451 C.ar    1  UNL1        0.1006
     29 C         142.9030  133.8832  155.2904 C.ar    1  UNL1        0.0230
     30 C         143.6521  132.5858  155.2151 C.ar    1  UNL1        0.0328
     31 C         144.4471  132.1093  156.3944 C.ar    1  UNL1        0.1592
     32 F         145.1962  130.8119  156.3191 F       1  UNL1       -0.2025
     33 C         144.4930  132.9301  157.6491 C.ar    1  UNL1        0.1284
     34 N         143.7439  134.2275  157.7244 N.ar    1  UNL1       -0.2399
     35 N         142.7520  138.9201  162.9771 N.ar    1  UNL1       -0.2497
     36 C         141.7882  139.5731  162.0312 C.ar    1  UNL1        0.0944
     37 C         142.5823  140.3517  161.0246 C.ar    1  UNL1        0.0439
     38 C         144.0369  140.1799  161.3484 C.ar    1  UNL1        0.1194
     39 N         144.1417  139.2951  162.5552 N.ar    1  UNL1       -0.1679
     40 C         141.1209  137.2461  164.1116 C.3     1  UNL1        0.0284
     41 C         142.3897  138.0457  164.1408 C.3     1  UNL1        0.1276
@<TRIPOS>BOND
     1    40    41    1
     2    41    35    1
     3    35    36   ar
     4    36    37   ar
     5    37     1    1
     6     1    15    1
     7    15    16   ar
     8    16    17   ar
     9    17    18    1
    10    17    19   ar
    11    19    20    2
    12    19    21   ar
    13     1     2    1
    14     2     3    1
    15     3    22    1
    16    22    23   ar
    17    23    24   ar
    18    24    28    1
    19    28    29   ar
    20    29    30   ar
    21    30    31   ar
    22    31    32    1
    23    31    33   ar
    24    33    34   ar
    25    24    25   ar
    26    25    26   ar
    27     3     4    1
    28     4     5    1
    29     5     6    2
    30     6     7    1
    31     7     8    2
    32     8     9    1
    33     9    10    1
    34    10    11    2
    35    11    12    1
    36    12    13    2
    37    37    38   ar
    38    38    39   ar
    39    39    35   ar
    40     6     1    1
    41    13     8    1
    42    21    15   ar
    43    26    22   ar
    44    13     5    1
    45    34    28   ar
    46     2    14    1
    47    26    27    1
@<TRIPOS>MOLECULE
*****
 41 47 0 0 0
SMALL
GASTEIGER

@<TRIPOS>ATOM
      1 C         140.7860  142.0772  159.2712 C.3     1  UNL1        0.1707
      2 N         139.4626  141.7969  158.6232 N.3     1  UNL1       -0.2797
      3 C         139.3971  141.4775  157.1590 C.3     1  UNL1        0.1167
      4 C         140.6551  141.4384  156.3429 C.3     1  UNL1        0.0511
      5 C         141.9785  141.7187  156.9910 C.2     1  UNL1       -0.0037
      6 C         142.0440  142.0381  158.4551 C.2     1  UNL1        0.0800
      7 N         143.4816  142.2692  158.8152 N.2     1  UNL1       -0.2519
      8 C         144.3047  142.0927  157.5737 C.2     1  UNL1        0.0627
      9 C         145.7800  142.1978  157.3242 C.3     1  UNL1        0.0717
     10 C         146.3264  141.9626  155.9472 C.2     1  UNL1       -0.0198
     11 C         145.3974  141.6224  154.8197 C.2     1  UNL1       -0.0042
     12 C         143.9220  141.5173  155.0692 C.2     1  UNL1        0.0006
     13 C         143.3757  141.7524  156.4462 C.2     1  UNL1        0.0111
     14 H         138.8817  142.6223  158.7707 H       1  UNL1        0.1246
     15 C         141.7942  142.4114  160.3304 C.ar    1  UNL1        0.2493
     16 N         142.4544  141.4354  161.2585 N.ar    1  UNL1       -0.1285
     17 N         143.3874  142.2012  162.1492 N.ar    1  UNL1       -0.1809
     18 C         144.2522  141.6197  163.2280 C.3     1  UNL1        0.1605
     19 C         143.3038  143.6504  161.7714 C.ar    1  UNL1        0.4389
     20 O         144.0703  144.7726  162.4063 O.2     1  UNL1       -0.2210
     21 O         142.3191  143.7803  160.6473 O.2     1  UNL1       -0.3896
     22 C         138.0736  141.1972  156.5109 C.ar    1  UNL1        0.1319
     23 N         136.7935  140.8759  157.2236 N.ar    1  UNL1       -0.2282
     24 C         135.7267  140.6692  156.1896 C.ar    1  UNL1        0.1171
     25 C         136.3476  140.8626  154.8379 C.ar    1  UNL1        0.0942
     26 N         137.7981  141.1890  155.0365 N.ar    1  UNL1       -0.3385
     27 H         138.4541  141.3666  154.3242 H       1  UNL1        0.1672
     28 C         134.2910  140.3287  156.4598 C.ar    1  UNL1        0.1006
     29 C         133.1991  141.0359  155.7132 C.ar    1  UNL1        0.0230
     30 C         131.7635  140.6955  155.9834 C.ar    1  UNL1        0.0328
     31 C         131.4198  139.6478  157.0003 C.ar    1  UNL1        0.1592
     32 F         129.9841  139.3073  157.2705 F       1  UNL1       -0.2025
     33 C         132.5117  138.9405  157.7470 C.ar    1  UNL1        0.1284
     34 N         133.9473  139.2810  157.4767 N.ar    1  UNL1       -0.2399
     35 N         138.5221  143.2170  162.2108 N.ar    1  UNL1       -0.2497
     36 C         139.4108  143.5305  161.0437 C.ar    1  UNL1        0.0944
     37 C         139.8782  142.2324  160.4552 C.ar    1  UNL1        0.0439
     38 C         139.2784  141.1166  161.2585 C.ar    1  UNL1        0.1194
     39 N         138.4403  141.7252  162.3436 N.ar    1  UNL1       -0.1679
     40 C         137.8430  144.0396  164.5797 C.3     1  UNL1        0.0284
     41 C         137.8357  144.2194  163.0906 C.3     1  UNL1        0.1276
@<TRIPOS>BOND
     1    40    41    1
     2    41    35    1
     3    35    36   ar
     4    36    37   ar
     5    37     1    1
     6     1    15    1
     7    15    16   ar
     8    16    17   ar
     9    17    18    1
    10    17    19   ar
    11    19    20    2
    12    19    21   ar
    13     1     2    1
    14     2     3    1
    15     3    22    1
    16    22    23   ar
    17    23    24   ar
    18    24    28    1
    19    28    29   ar
    20    29    30   ar
    21    30    31   ar
    22    31    32    1
    23    31    33   ar
    24    33    34   ar
    25    24    25   ar
    26    25    26   ar
    27     3     4    1
    28     4     5    1
    29     5     6    2
    30     6     7    1
    31     7     8    2
    32     8     9    1
    33     9    10    1
    34    10    11    2
    35    11    12    1
    36    12    13    2
    37    37    38   ar
    38    38    39   ar
    39    39    35   ar
    40     6     1    1
    41    13     8    1
    42    21    15   ar
    43    26    22   ar
    44    13     5    1
    45    34    28   ar
    46     2    14    1
    47    26    27    1
@<TRIPOS>MOLECULE
*****
 41 47 0 0 0
SMALL
GASTEIGER

@<TRIPOS>ATOM
      1 C         142.5685  140.2815  159.3454 C.3     1  UNL1        0.1707
      2 N         143.3548  140.6459  158.1211 N.3     1  UNL1       -0.2797
      3 C         144.2362  141.8595  158.1295 C.3     1  UNL1        0.1167
      4 C         144.3313  142.7089  159.3622 C.3     1  UNL1        0.0511
      5 C         143.5450  142.3446  160.5865 C.2     1  UNL1       -0.0037
      6 C         142.6636  141.1309  160.5781 C.2     1  UNL1        0.0800
      7 N         142.0117  141.0222  161.9247 N.2     1  UNL1       -0.2519
      8 C         142.4902  142.1686  162.7653 C.2     1  UNL1        0.0627
      9 C         142.1855  142.5740  164.1769 C.3     1  UNL1        0.0717
     10 C         142.8284  143.7966  164.7616 C.2     1  UNL1       -0.0198
     11 C         143.7761  144.6139  163.9345 C.2     1  UNL1       -0.0042
     12 C         144.0808  144.2086  162.5229 C.2     1  UNL1        0.0006
     13 C         143.4379  142.9859  161.9383 C.2     1  UNL1        0.0111
     14 H         142.6811  140.7765  157.3665 H       1  UNL1        0.1246
     15 C         141.6368  139.5318  160.2509 C.ar    1  UNL1        0.2493
     16 N         140.1630  139.7716  160.3936 N.ar    1  UNL1       -0.1285
     17 N         139.6307  138.7986  161.4036 N.ar    1  UNL1       -0.1809
     18 C         138.2041  138.6865  161.8531 C.3     1  UNL1        0.1605
     19 C         140.7756  137.9575  161.8850 C.ar    1  UNL1        0.4389
     20 O         140.6948  136.8565  162.9006 O.2     1  UNL1       -0.2210
     21 O         142.0154  138.4106  161.1726 O.2     1  UNL1       -0.3896
     22 C         145.0226  142.2239  156.9051 C.ar    1  UNL1        0.1319
     23 N         146.4967  142.0244  156.7124 N.ar    1  UNL1       -0.2282
     24 C         146.8580  142.5289  155.3468 C.ar    1  UNL1        0.1171
     25 C         145.6072  143.0403  154.6956 C.ar    1  UNL1        0.0942
     26 N         144.4729  142.8518  155.6587 N.ar    1  UNL1       -0.3385
     27 H         143.5326  143.0971  155.5006 H       1  UNL1        0.1672
     28 C         148.2294  142.5231  154.7391 C.ar    1  UNL1        0.1006
     29 C         148.5051  143.3259  153.5023 C.ar    1  UNL1        0.0230
     30 C         149.8765  143.3201  152.8946 C.ar    1  UNL1        0.0328
     31 C         150.9721  142.5115  153.5236 C.ar    1  UNL1        0.1592
     32 F         152.3435  142.5057  152.9159 F       1  UNL1       -0.2025
     33 C         150.6964  141.7088  154.7604 C.ar    1  UNL1        0.1284
     34 N         149.3251  141.7145  155.3681 N.ar    1  UNL1       -0.2399
     35 N         142.1346  137.0906  157.1785 N.ar    1  UNL1       -0.2497
     36 C         142.9219  137.9152  158.1535 C.ar    1  UNL1        0.0944
     37 C         142.1498  139.1718  158.4272 C.ar    1  UNL1        0.0439
     38 C         140.8855  139.1238  157.6214 C.ar    1  UNL1        0.1194
     39 N         140.8761  137.8376  156.8497 N.ar    1  UNL1       -0.1679
     40 C         143.6836  135.6513  155.6689 C.3     1  UNL1        0.0284
     41 C         142.5356  135.7538  156.6289 C.3     1  UNL1        0.1276
@<TRIPOS>BOND
     1    40    41    1
     2    41    35    1
     3    35    36   ar
     4    36    37   ar
     5    37     1    1
     6     1    15    1
     7    15    16   ar
     8    16    17   ar
     9    17    18    1
    10    17    19   ar
    11    19    20    2
    12    19    21   ar
    13     1     2    1
    14     2     3    1
    15     3    22    1
    16    22    23   ar
    17    23    24   ar
    18    24    28    1
    19    28    29   ar
    20    29    30   ar
    21    30    31   ar
    22    31    32    1
    23    31    33   ar
    24    33    34   ar
    25    24    25   ar
    26    25    26   ar
    27     3     4    1
    28     4     5    1
    29     5     6    2
    30     6     7    1
    31     7     8    2
    32     8     9    1
    33     9    10    1
    34    10    11    2
    35    11    12    1
    36    12    13    2
    37    37    38   ar
    38    38    39   ar
    39    39    35   ar
    40     6     1    1
    41    13     8    1
    42    21    15   ar
    43    26    22   ar
    44    13     5    1
    45    34    28   ar
    46     2    14    1
    47    26    27    1
@<TRIPOS>MOLECULE
*****
 41 47 0 0 0
SMALL
GASTEIGER

@<TRIPOS>ATOM
      1 C         140.1811  140.5631  160.0492 C.3     1  UNL1        0.1707
      2 N         140.8607  140.5467  161.3863 N.3     1  UNL1       -0.2797
      3 C         141.9643  139.5669  161.6546 C.3     1  UNL1        0.1167
      4 C         142.3884  138.6036  160.5858 C.3     1  UNL1        0.0511
      5 C         141.7088  138.6200  159.2487 C.2     1  UNL1       -0.0037
      6 C         140.6051  139.5998  158.9804 C.2     1  UNL1        0.0800
      7 N         140.1238  139.3827  157.5765 N.2     1  UNL1       -0.2519
      8 C         140.9299  138.2687  156.9771 C.2     1  UNL1        0.0627
      9 C         140.8985  137.6227  155.6237 C.3     1  UNL1        0.0717
     10 C         141.8467  136.5053  155.3039 C.2     1  UNL1       -0.0198
     11 C         142.8262  136.0339  156.3375 C.2     1  UNL1       -0.0042
     12 C         142.8577  136.6800  157.6908 C.2     1  UNL1        0.0006
     13 C         141.9095  137.7974  158.0106 C.2     1  UNL1        0.0111
     14 H         140.1362  140.3721  162.0827 H       1  UNL1        0.1246
     15 C         139.2408  140.9623  158.9507 C.ar    1  UNL1        0.2493
     16 N         139.4050  142.1375  158.0333 N.ar    1  UNL1       -0.1285
     17 N         138.2368  142.1577  157.0924 N.ar    1  UNL1       -0.1809
     18 C         137.9970  143.1641  156.0063 C.3     1  UNL1        0.1605
     19 C         137.3508  140.9950  157.4285 C.ar    1  UNL1        0.4389
     20 O         136.0693  140.6344  156.7373 O.2     1  UNL1       -0.2210
     21 O         137.9713  140.2562  158.5770 O.2     1  UNL1       -0.3896
     22 C         142.6440  139.5504  162.9918 C.ar    1  UNL1        0.1319
     23 N         142.0804  140.0875  164.2739 N.ar    1  UNL1       -0.2282
     24 C         143.0946  139.8629  165.3560 C.ar    1  UNL1        0.1171
     25 C         144.2849  139.1870  164.7427 C.ar    1  UNL1        0.0942
     26 N         144.0065  138.9939  163.2815 N.ar    1  UNL1       -0.3385
     27 H         144.6117  138.5753  162.6274 H       1  UNL1        0.1672
     28 C         142.9447  140.2469  166.7983 C.ar    1  UNL1        0.1006
     29 C         142.7331  139.1870  167.8385 C.ar    1  UNL1        0.0230
     30 C         142.5832  139.5709  169.2807 C.ar    1  UNL1        0.0328
     31 C         142.6449  141.0147  169.6828 C.ar    1  UNL1        0.1592
     32 F         142.4950  141.3986  171.1251 F       1  UNL1       -0.2025
     33 C         142.8565  142.0745  168.6427 C.ar    1  UNL1        0.1284
     34 N         143.0064  141.6906  167.2004 N.ar    1  UNL1       -0.2399
     35 N         138.9075  143.7616  161.8417 N.ar    1  UNL1       -0.2497
     36 C         140.0121  142.9613  161.2176 C.ar    1  UNL1        0.0944
     37 C         139.4305  141.6651  160.7364 C.ar    1  UNL1        0.0439
     38 C         137.9665  141.6642  161.0632 C.ar    1  UNL1        0.1194
     39 N         137.6433  142.9600  161.7464 N.ar    1  UNL1       -0.1679
     40 C         139.7057  146.2290  161.6852 C.3     1  UNL1        0.0284
     41 C         139.0433  145.1243  162.4538 C.3     1  UNL1        0.1276
@<TRIPOS>BOND
     1    40    41    1
     2    41    35    1
     3    35    36   ar
     4    36    37   ar
     5    37     1    1
     6     1    15    1
     7    15    16   ar
     8    16    17   ar
     9    17    18    1
    10    17    19   ar
    11    19    20    2
    12    19    21   ar
    13     1     2    1
    14     2     3    1
    15     3    22    1
    16    22    23   ar
    17    23    24   ar
    18    24    28    1
    19    28    29   ar
    20    29    30   ar
    21    30    31   ar
    22    31    32    1
    23    31    33   ar
    24    33    34   ar
    25    24    25   ar
    26    25    26   ar
    27     3     4    1
    28     4     5    1
    29     5     6    2
    30     6     7    1
    31     7     8    2
    32     8     9    1
    33     9    10    1
    34    10    11    2
    35    11    12    1
    36    12    13    2
    37    37    38   ar
    38    38    39   ar
    39    39    35   ar
    40     6     1    1
    41    13     8    1
    42    21    15   ar
    43    26    22   ar
    44    13     5    1
    45    34    28   ar
    46     2    14    1
    47    26    27    1
@<TRIPOS>MOLECULE
*****
 41 47 0 0 0
SMALL
GASTEIGER

@<TRIPOS>ATOM
      1 C         141.6638  142.1826  159.9807 C.3     1  UNL1        0.1707
      2 N         142.5213  142.0087  158.7623 N.3     1  UNL1       -0.2797
      3 C         143.7796  141.1959  158.8406 C.3     1  UNL1        0.1167
      4 C         144.1803  140.5571  160.1373 C.3     1  UNL1        0.0511
      5 C         143.3228  140.7310  161.3556 C.2     1  UNL1       -0.0037
      6 C         142.0645  141.5437  161.2773 C.2     1  UNL1        0.0800
      7 N         141.4249  141.5395  162.6341 N.2     1  UNL1       -0.2519
      8 C         142.2879  140.7242  163.5509 C.2     1  UNL1        0.0627
      9 C         142.1571  140.3723  165.0032 C.3     1  UNL1        0.0717
     10 C         143.1993  139.5206  165.6652 C.2     1  UNL1       -0.0198
     11 C         144.3723  139.0209  164.8751 C.2     1  UNL1       -0.0042
     12 C         144.5031  139.3728  163.4229 C.2     1  UNL1        0.0006
     13 C         143.4609  140.2245  162.7608 C.2     1  UNL1        0.0111
     14 H         142.7930  142.9434  158.4576 H       1  UNL1        0.1246
     15 C         140.5303  142.6326  160.8541 C.ar    1  UNL1        0.2493
     16 N         140.4485  143.9370  161.5900 N.ar    1  UNL1       -0.1285
     17 N         139.1472  143.9677  162.3357 N.ar    1  UNL1       -0.1809
     18 C         138.6549  145.0873  163.2039 C.3     1  UNL1        0.1605
     19 C         138.4250  142.6822  162.0606 C.ar    1  UNL1        0.4389
     20 O         137.0834  142.2905  162.6056 O.2     1  UNL1       -0.2210
     21 O         139.2798  141.8570  161.1449 O.2     1  UNL1       -0.3896
     22 C         144.6372  141.0220  157.6223 C.ar    1  UNL1        0.1319
     23 N         145.6732  141.9877  157.1283 N.ar    1  UNL1       -0.2282
     24 C         146.2856  141.4144  155.8847 C.ar    1  UNL1        0.1171
     25 C         145.6281  140.0945  155.6102 C.ar    1  UNL1        0.0942
     26 N         144.6092  139.8520  156.6841 N.ar    1  UNL1       -0.3385
     27 H         144.0248  139.0633  156.7598 H       1  UNL1        0.1672
     28 C         147.3660  142.0497  155.0604 C.ar    1  UNL1        0.1006
     29 C         148.7838  141.5774  155.1900 C.ar    1  UNL1        0.0230
     30 C         149.8642  142.2126  154.3658 C.ar    1  UNL1        0.0328
     31 C         149.5267  143.3200  153.4120 C.ar    1  UNL1        0.1592
     32 F         150.6070  143.9552  152.5877 F       1  UNL1       -0.2025
     33 C         148.1088  143.7922  153.2824 C.ar    1  UNL1        0.1284
     34 N         147.0285  143.1570  154.1066 N.ar    1  UNL1       -0.2399
     35 N         140.0925  144.7930  157.5761 N.ar    1  UNL1       -0.2497
     36 C         141.1235  144.4025  158.5933 C.ar    1  UNL1        0.0944
     37 C         140.8694  142.9777  158.9874 C.ar    1  UNL1        0.0439
     38 C         139.6813  142.4876  158.2138 C.ar    1  UNL1        0.1194
     39 N         139.2011  143.6096  157.3416 N.ar    1  UNL1       -0.1679
     40 C         139.0036  146.3253  155.7827 C.3     1  UNL1        0.0284
     41 C         139.9736  146.1319  156.9103 C.3     1  UNL1        0.1276
@<TRIPOS>BOND
     1    40    41    1
     2    41    35    1
     3    35    36   ar
     4    36    37   ar
     5    37     1    1
     6     1    15    1
     7    15    16   ar
     8    16    17   ar
     9    17    18    1
    10    17    19   ar
    11    19    20    2
    12    19    21   ar
    13     1     2    1
    14     2     3    1
    15     3    22    1
    16    22    23   ar
    17    23    24   ar
    18    24    28    1
    19    28    29   ar
    20    29    30   ar
    21    30    31   ar
    22    31    32    1
    23    31    33   ar
    24    33    34   ar
    25    24    25   ar
    26    25    26   ar
    27     3     4    1
    28     4     5    1
    29     5     6    2
    30     6     7    1
    31     7     8    2
    32     8     9    1
    33     9    10    1
    34    10    11    2
    35    11    12    1
    36    12    13    2
    37    37    38   ar
    38    38    39   ar
    39    39    35   ar
    40     6     1    1
    41    13     8    1
    42    21    15   ar
    43    26    22   ar
    44    13     5    1
    45    34    28   ar
    46     2    14    1
    47    26    27    1
