@<TRIPOS>MOLECULE
*****
 34 37 0 0 0
SMALL
GASTEIGER

@<TRIPOS>ATOM
      1 N         138.9299  140.1098  165.7852 N.3     1  UNL1       -0.2691
      2 C         138.1010  140.9452  164.8551 C.3     1  UNL1        0.0724
      3 C         138.5784  142.3060  164.4423 C.3     1  UNL1        0.0188
      4 C         139.8846  142.8314  164.9597 C.3     1  UNL1        0.0188
      5 C         140.7135  141.9961  165.8899 C.3     1  UNL1        0.0188
      6 C         140.2361  140.6353  166.3027 C.3     1  UNL1        0.0724
      7 C         138.4525  138.7490  166.1979 C.3     1  UNL1        0.0987
      8 O         138.2026  139.3434  168.7148 O.co2   1  UNL1       -0.5478
      9 C         137.7541  138.5661  167.5128 C.2     1  UNL1        0.0652
     10 O         136.6071  137.6060  167.6257 O.co2   1  UNL1       -0.5478
     11 C         138.6735  137.5712  165.2959 C.3     1  UNL1        0.0480
     12 C         139.5261  137.7148  164.0701 C.ar    1  UNL1       -0.0203
     13 C         138.8859  137.9558  162.7352 C.ar    1  UNL1       -0.0019
     14 C         139.7385  138.0994  161.5095 C.ar    1  UNL1        0.0293
     15 C         141.2313  138.0020  161.6187 C.ar    1  UNL1        0.1401
     16 F         142.0839  138.1457  160.3928 F       1  UNL1       -0.2042
     17 C         141.8716  137.7610  162.9535 C.ar    1  UNL1        0.0293
     18 C         141.0190  137.6174  164.1792 C.ar    1  UNL1       -0.0019
     19 C         140.3619  144.1922  164.5470 C.3     1  UNL1        0.0721
     20 N         140.6874  144.4687  163.1091 N.3     1  UNL1       -0.2724
     21 C         139.8435  145.4250  162.3195 C.3     1  UNL1        0.0758
     22 C         140.1689  145.7014  160.8816 C.3     1  UNL1        0.0609
     23 C         141.3383  145.0216  160.2332 C.3     1  UNL1        0.1687
     24 C         142.1822  144.0653  161.0227 C.3     1  UNL1        0.0609
     25 C         141.8568  143.7889  162.4607 C.3     1  UNL1        0.0758
     26 O         141.6637  145.2980  158.7953 O.3     1  UNL1       -0.4790
     27 C         140.5925  145.1939  157.7504 C.ar    1  UNL1        0.1393
     28 C         139.8960  143.8859  157.5182 C.ar    1  UNL1        0.0378
     29 C         138.8248  143.7817  156.4734 C.ar    1  UNL1        0.0154
     30 C         138.4501  144.9856  155.6607 C.ar    1  UNL1        0.0684
     31 CL        137.3790  144.8814  154.6159 Cl      1  UNL1       -0.0814
     32 C         139.1467  146.2936  155.8929 C.ar    1  UNL1        0.0712
     33 CL        138.7721  147.4974  155.0803 Cl      1  UNL1       -0.0813
     34 C         140.2179  146.3977  156.9378 C.ar    1  UNL1        0.0491
@<TRIPOS>UNITY_ATOM_ATTR
8 1
charge -1
@<TRIPOS>BOND
     1     8     9   ar
     2     9    10   ar
     3     9     7    1
     4     7    11    1
     5    11    12    1
     6    12    13   ar
     7    13    14   ar
     8    14    15   ar
     9    15    16    1
    10    15    17   ar
    11    17    18   ar
    12     7     1    1
    13     1     2    1
    14     2     3    1
    15     3     4    1
    16     4    19    1
    17    19    20    1
    18    20    21    1
    19    21    22    1
    20    22    23    1
    21    23    26    1
    22    26    27    1
    23    27    28   ar
    24    28    29   ar
    25    29    30   ar
    26    30    31    1
    27    30    32   ar
    28    32    33    1
    29    32    34   ar
    30    23    24    1
    31    24    25    1
    32     4     5    1
    33     5     6    1
    34    18    12   ar
    35     6     1    1
    36    25    20    1
    37    34    27   ar
@<TRIPOS>MOLECULE
*****
 34 37 0 0 0
SMALL
GASTEIGER

@<TRIPOS>ATOM
      1 N         139.8037  141.1428  166.8969 N.3     1  UNL1       -0.2691
      2 C         138.9681  140.3708  165.9193 C.3     1  UNL1        0.0724
      3 C         138.3769  141.0631  164.7272 C.3     1  UNL1        0.0188
      4 C         138.6211  142.5274  164.5128 C.3     1  UNL1        0.0188
      5 C         139.4567  143.2995  165.4904 C.3     1  UNL1        0.0188
      6 C         140.0480  142.6072  166.6825 C.3     1  UNL1        0.0724
      7 C         140.3949  140.4505  168.0890 C.3     1  UNL1        0.0987
      8 O         140.0628  140.8603  170.6330 O.co2   1  UNL1       -0.5478
      9 C         139.5806  140.2790  169.3371 C.2     1  UNL1        0.0652
     10 O         138.2841  139.5262  169.2891 O.co2   1  UNL1       -0.5478
     11 C         141.8005  139.9296  168.0331 C.3     1  UNL1        0.0480
     12 C         142.5568  139.9495  166.7378 C.ar    1  UNL1       -0.0203
     13 C         143.2218  141.2125  166.2770 C.ar    1  UNL1       -0.0019
     14 C         143.9780  141.2324  164.9817 C.ar    1  UNL1        0.0293
     15 C         144.0692  139.9892  164.1474 C.ar    1  UNL1        0.1401
     16 F         144.8255  140.0090  162.8521 F       1  UNL1       -0.2042
     17 C         143.4042  138.7262  164.6082 C.ar    1  UNL1        0.0293
     18 C         142.6479  138.7063  165.9035 C.ar    1  UNL1       -0.0019
     19 C         138.0299  143.2198  163.3207 C.3     1  UNL1        0.0721
     20 N         138.9273  143.8623  162.3050 N.3     1  UNL1       -0.2724
     21 C         139.4880  143.0474  161.1773 C.3     1  UNL1        0.0758
     22 C         140.3855  143.6900  160.1616 C.3     1  UNL1        0.0609
     23 C         140.7223  145.1474  160.2735 C.3     1  UNL1        0.1687
     24 C         140.1616  145.9623  161.4012 C.3     1  UNL1        0.0609
     25 C         139.2641  145.3197  162.4169 C.3     1  UNL1        0.0758
     26 O         141.6197  145.7899  159.2578 O.3     1  UNL1       -0.4790
     27 C         141.3064  145.6676  157.7960 C.ar    1  UNL1        0.1393
     28 C         142.2278  144.9023  156.8930 C.ar    1  UNL1        0.0378
     29 C         141.9146  144.7799  155.4312 C.ar    1  UNL1        0.0154
     30 C         140.6799  145.4229  154.8723 C.ar    1  UNL1        0.0684
     31 CL        140.3667  145.3006  153.4105 Cl      1  UNL1       -0.0814
     32 C         139.7585  146.1882  155.7753 C.ar    1  UNL1        0.0712
     33 CL        138.5239  146.8312  155.2165 Cl      1  UNL1       -0.0813
     34 C         140.0718  146.3106  157.2372 C.ar    1  UNL1        0.0491
@<TRIPOS>UNITY_ATOM_ATTR
8 1
charge -1
@<TRIPOS>BOND
     1     8     9   ar
     2     9    10   ar
     3     9     7    1
     4     7    11    1
     5    11    12    1
     6    12    13   ar
     7    13    14   ar
     8    14    15   ar
     9    15    16    1
    10    15    17   ar
    11    17    18   ar
    12     7     1    1
    13     1     2    1
    14     2     3    1
    15     3     4    1
    16     4    19    1
    17    19    20    1
    18    20    21    1
    19    21    22    1
    20    22    23    1
    21    23    26    1
    22    26    27    1
    23    27    28   ar
    24    28    29   ar
    25    29    30   ar
    26    30    31    1
    27    30    32   ar
    28    32    33    1
    29    32    34   ar
    30    23    24    1
    31    24    25    1
    32     4     5    1
    33     5     6    1
    34    18    12   ar
    35     6     1    1
    36    25    20    1
    37    34    27   ar
@<TRIPOS>MOLECULE
*****
 34 37 0 0 0
SMALL
GASTEIGER

@<TRIPOS>ATOM
      1 N         141.4149  140.0989  166.7152 N.3     1  UNL1       -0.2691
      2 C         141.6413  141.4148  166.0318 C.3     1  UNL1        0.0724
      3 C         142.7961  141.5815  165.0892 C.3     1  UNL1        0.0188
      4 C         143.7246  140.4323  164.8300 C.3     1  UNL1        0.0188
      5 C         143.4983  139.1163  165.5134 C.3     1  UNL1        0.0188
      6 C         142.3435  138.9496  166.4561 C.3     1  UNL1        0.0724
      7 C         140.2601  139.9322  167.6579 C.3     1  UNL1        0.0987
      8 O         141.7478  140.7369  169.6300 O.co2   1  UNL1       -0.5478
      9 C         140.4440  140.1953  169.1232 C.2     1  UNL1        0.0652
     10 O         139.3243  139.9167  170.0815 O.co2   1  UNL1       -0.5478
     11 C         138.9214  139.5024  167.1353 C.3     1  UNL1        0.0480
     12 C         138.7358  139.2459  165.6690 C.ar    1  UNL1       -0.0203
     13 C         139.0247  137.8872  165.1029 C.ar    1  UNL1       -0.0019
     14 C         138.8391  137.6307  163.6367 C.ar    1  UNL1        0.0293
     15 C         138.3645  138.7329  162.7367 C.ar    1  UNL1        0.1401
     16 F         138.1788  138.4763  161.2705 F       1  UNL1       -0.2042
     17 C         138.0755  140.0915  163.3028 C.ar    1  UNL1        0.0293
     18 C         138.2612  140.3480  164.7690 C.ar    1  UNL1       -0.0019
     19 C         144.8794  140.5990  163.8873 C.3     1  UNL1        0.0721
     20 N         144.6291  140.9268  162.4452 N.3     1  UNL1       -0.2724
     21 C         144.7930  142.3357  161.9568 C.3     1  UNL1        0.0758
     22 C         144.5427  142.6635  160.5147 C.3     1  UNL1        0.0609
     23 C         144.1285  141.5825  159.5608 C.3     1  UNL1        0.1687
     24 C         143.9646  140.1737  160.0491 C.3     1  UNL1        0.0609
     25 C         144.2149  139.8459  161.4913 C.3     1  UNL1        0.0758
     26 O         143.8782  141.9103  158.1186 O.3     1  UNL1       -0.4790
     27 C         145.0098  141.8769  157.1345 C.ar    1  UNL1        0.1393
     28 C         146.3130  142.5408  157.4675 C.ar    1  UNL1        0.0378
     29 C         147.4446  142.5075  156.4835 C.ar    1  UNL1        0.0154
     30 C         147.2730  141.8103  155.1664 C.ar    1  UNL1        0.0684
     31 CL        148.4046  141.7770  154.1824 Cl      1  UNL1       -0.0814
     32 C         145.9698  141.1464  154.8335 C.ar    1  UNL1        0.0712
     33 CL        145.7982  140.4492  153.5165 Cl      1  UNL1       -0.0813
     34 C         144.8382  141.1798  155.8176 C.ar    1  UNL1        0.0491
@<TRIPOS>UNITY_ATOM_ATTR
8 1
charge -1
@<TRIPOS>BOND
     1     8     9   ar
     2     9    10   ar
     3     9     7    1
     4     7    11    1
     5    11    12    1
     6    12    13   ar
     7    13    14   ar
     8    14    15   ar
     9    15    16    1
    10    15    17   ar
    11    17    18   ar
    12     7     1    1
    13     1     2    1
    14     2     3    1
    15     3     4    1
    16     4    19    1
    17    19    20    1
    18    20    21    1
    19    21    22    1
    20    22    23    1
    21    23    26    1
    22    26    27    1
    23    27    28   ar
    24    28    29   ar
    25    29    30   ar
    26    30    31    1
    27    30    32   ar
    28    32    33    1
    29    32    34   ar
    30    23    24    1
    31    24    25    1
    32     4     5    1
    33     5     6    1
    34    18    12   ar
    35     6     1    1
    36    25    20    1
    37    34    27   ar
@<TRIPOS>MOLECULE
*****
 34 37 0 0 0
SMALL
GASTEIGER

@<TRIPOS>ATOM
      1 N         138.3785  139.9286  165.0150 N.3     1  UNL1       -0.2691
      2 C         137.6625  139.8765  163.6980 C.3     1  UNL1        0.0724
      3 C         137.4897  141.1272  162.8882 C.3     1  UNL1        0.0188
      4 C         138.0330  142.4301  163.3953 C.3     1  UNL1        0.0188
      5 C         138.7492  142.4823  164.7123 C.3     1  UNL1        0.0188
      6 C         138.9219  141.2316  165.5222 C.3     1  UNL1        0.0724
      7 C         138.5513  138.6779  165.8248 C.3     1  UNL1        0.0987
      8 O         136.7514  137.7124  167.4305 O.co2   1  UNL1       -0.5478
      9 C         137.9500  138.5831  167.1958 C.2     1  UNL1        0.0652
     10 O         138.5474  139.3590  168.3320 O.co2   1  UNL1       -0.5478
     11 C         139.3252  137.5220  165.2637 C.3     1  UNL1        0.0480
     12 C         140.5563  137.7711  164.4436 C.ar    1  UNL1       -0.0203
     13 C         141.7922  138.3190  165.0934 C.ar    1  UNL1       -0.0019
     14 C         143.0231  138.5681  164.2733 C.ar    1  UNL1        0.0293
     15 C         143.0182  138.2692  162.8034 C.ar    1  UNL1        0.1401
     16 F         144.2493  138.5183  161.9833 F       1  UNL1       -0.2042
     17 C         141.7823  137.7212  162.1536 C.ar    1  UNL1        0.0293
     18 C         140.5514  137.4722  162.9737 C.ar    1  UNL1       -0.0019
     19 C         137.8603  143.6808  162.5855 C.3     1  UNL1        0.0721
     20 N         138.9157  144.0884  161.6006 N.3     1  UNL1       -0.2724
     21 C         139.1522  143.2634  160.3703 C.3     1  UNL1        0.0758
     22 C         140.2076  143.6710  159.3854 C.3     1  UNL1        0.0609
     23 C         141.0266  144.9035  159.6308 C.3     1  UNL1        0.1687
     24 C         140.7901  145.7284  160.8611 C.3     1  UNL1        0.0609
     25 C         139.7347  145.3209  161.8460 C.3     1  UNL1        0.0758
     26 O         142.0820  145.3110  158.6460 O.3     1  UNL1       -0.4790
     27 C         141.7717  145.3287  157.1785 C.ar    1  UNL1        0.1393
     28 C         140.7786  146.3120  156.6337 C.ar    1  UNL1        0.0378
     29 C         140.4684  146.3298  155.1662 C.ar    1  UNL1        0.0154
     30 C         141.1512  145.3641  154.2435 C.ar    1  UNL1        0.0684
     31 CL        140.8409  145.3818  152.7761 Cl      1  UNL1       -0.0814
     32 C         142.1442  144.3807  154.7884 C.ar    1  UNL1        0.0712
     33 CL        142.8270  143.4150  153.8658 Cl      1  UNL1       -0.0813
     34 C         142.4545  144.3630  156.2559 C.ar    1  UNL1        0.0491
@<TRIPOS>UNITY_ATOM_ATTR
8 1
charge -1
@<TRIPOS>BOND
     1     8     9   ar
     2     9    10   ar
     3     9     7    1
     4     7    11    1
     5    11    12    1
     6    12    13   ar
     7    13    14   ar
     8    14    15   ar
     9    15    16    1
    10    15    17   ar
    11    17    18   ar
    12     7     1    1
    13     1     2    1
    14     2     3    1
    15     3     4    1
    16     4    19    1
    17    19    20    1
    18    20    21    1
    19    21    22    1
    20    22    23    1
    21    23    26    1
    22    26    27    1
    23    27    28   ar
    24    28    29   ar
    25    29    30   ar
    26    30    31    1
    27    30    32   ar
    28    32    33    1
    29    32    34   ar
    30    23    24    1
    31    24    25    1
    32     4     5    1
    33     5     6    1
    34    18    12   ar
    35     6     1    1
    36    25    20    1
    37    34    27   ar
@<TRIPOS>MOLECULE
*****
 34 37 0 0 0
SMALL
GASTEIGER

@<TRIPOS>ATOM
      1 N         138.3702  139.8978  164.9869 N.3     1  UNL1       -0.2691
      2 C         137.6188  139.8386  163.6900 C.3     1  UNL1        0.0724
      3 C         137.4472  141.0798  162.8654 C.3     1  UNL1        0.0188
      4 C         138.0269  142.3801  163.3376 C.3     1  UNL1        0.0188
      5 C         138.7783  142.4393  164.6345 C.3     1  UNL1        0.0188
      6 C         138.9500  141.1981  165.4592 C.3     1  UNL1        0.0724
      7 C         138.5419  138.6566  165.8115 C.3     1  UNL1        0.0987
      8 O         136.6985  137.6946  167.3694 O.co2   1  UNL1       -0.5478
      9 C         137.9051  138.5624  167.1665 C.2     1  UNL1        0.0652
     10 O         138.4749  139.3359  168.3184 O.co2   1  UNL1       -0.5478
     11 C         139.3502  137.5097  165.2813 C.3     1  UNL1        0.0480
     12 C         140.5763  137.7734  164.4584 C.ar    1  UNL1       -0.0203
     13 C         140.5696  137.4801  162.9874 C.ar    1  UNL1       -0.0019
     14 C         141.7957  137.7438  162.1645 C.ar    1  UNL1        0.0293
     15 C         143.0284  138.3008  162.8126 C.ar    1  UNL1        0.1401
     16 F         144.2546  138.5645  161.9897 F       1  UNL1       -0.2042
     17 C         143.0351  138.5941  164.2836 C.ar    1  UNL1        0.0293
     18 C         141.8091  138.3304  165.1065 C.ar    1  UNL1       -0.0019
     19 C         137.8553  143.6213  162.5129 C.3     1  UNL1        0.0721
     20 N         138.9342  144.0441  161.5606 N.3     1  UNL1       -0.2724
     21 C         139.0488  143.3866  160.2172 C.3     1  UNL1        0.0758
     22 C         140.1277  143.8095  159.2648 C.3     1  UNL1        0.0609
     23 C         141.0921  144.8898  159.6558 C.3     1  UNL1        0.1687
     24 C         140.9776  145.5473  160.9991 C.3     1  UNL1        0.0609
     25 C         139.8986  145.1244  161.9515 C.3     1  UNL1        0.0758
     26 O         142.1711  145.3127  158.7034 O.3     1  UNL1       -0.4790
     27 C         142.6833  144.3488  157.6744 C.ar    1  UNL1        0.1393
     28 C         142.3608  144.5581  156.2245 C.ar    1  UNL1        0.0378
     29 C         142.8730  143.5943  155.1956 C.ar    1  UNL1        0.0154
     30 C         143.7076  142.4212  155.6165 C.ar    1  UNL1        0.0684
     31 CL        144.2198  141.4574  154.5875 Cl      1  UNL1       -0.0814
     32 C         144.0301  142.2119  157.0664 C.ar    1  UNL1        0.0712
     33 CL        144.8647  141.0388  157.4873 Cl      1  UNL1       -0.0813
     34 C         143.5179  143.1757  158.0954 C.ar    1  UNL1        0.0491
@<TRIPOS>UNITY_ATOM_ATTR
8 1
charge -1
@<TRIPOS>BOND
     1     8     9   ar
     2     9    10   ar
     3     9     7    1
     4     7    11    1
     5    11    12    1
     6    12    13   ar
     7    13    14   ar
     8    14    15   ar
     9    15    16    1
    10    15    17   ar
    11    17    18   ar
    12     7     1    1
    13     1     2    1
    14     2     3    1
    15     3     4    1
    16     4    19    1
    17    19    20    1
    18    20    21    1
    19    21    22    1
    20    22    23    1
    21    23    26    1
    22    26    27    1
    23    27    28   ar
    24    28    29   ar
    25    29    30   ar
    26    30    31    1
    27    30    32   ar
    28    32    33    1
    29    32    34   ar
    30    23    24    1
    31    24    25    1
    32     4     5    1
    33     5     6    1
    34    18    12   ar
    35     6     1    1
    36    25    20    1
    37    34    27   ar
@<TRIPOS>MOLECULE
*****
 34 37 0 0 0
SMALL
GASTEIGER

@<TRIPOS>ATOM
      1 N         141.4268  140.6794  167.0476 N.3     1  UNL1       -0.2691
      2 C         140.0271  140.3787  166.5999 C.3     1  UNL1        0.0724
      3 C         139.2696  141.3818  165.7814 C.3     1  UNL1        0.0188
      4 C         139.9118  142.6857  165.4106 C.3     1  UNL1        0.0188
      5 C         141.3116  142.9864  165.8583 C.3     1  UNL1        0.0188
      6 C         142.0690  141.9833  166.6768 C.3     1  UNL1        0.0724
      7 C         142.1842  139.6762  167.8661 C.3     1  UNL1        0.0987
      8 O         143.2898  139.8474  170.2110 O.co2   1  UNL1       -0.5478
      9 C         142.0645  139.6843  169.3613 C.2     1  UNL1        0.0652
     10 O         140.7194  139.5293  170.0069 O.co2   1  UNL1       -0.5478
     11 C         143.0614  138.6650  167.1894 C.3     1  UNL1        0.0480
     12 C         143.1552  138.6354  165.6926 C.ar    1  UNL1       -0.0203
     13 C         144.3009  139.3112  164.9994 C.ar    1  UNL1       -0.0019
     14 C         144.3946  139.2816  163.5027 C.ar    1  UNL1        0.0293
     15 C         143.3426  138.5762  162.6991 C.ar    1  UNL1        0.1401
     16 F         143.4364  138.5466  161.2023 F       1  UNL1       -0.2042
     17 C         142.1969  137.9004  163.3923 C.ar    1  UNL1        0.0293
     18 C         142.1032  137.9300  164.8891 C.ar    1  UNL1       -0.0019
     19 C         139.1543  143.6888  164.5921 C.3     1  UNL1        0.0721
     20 N         139.6577  144.0833  163.2353 N.3     1  UNL1       -0.2724
     21 C         139.4568  145.4845  162.7390 C.3     1  UNL1        0.0758
     22 C         139.9601  145.8790  161.3822 C.3     1  UNL1        0.0609
     23 C         140.6643  144.8723  160.5216 C.3     1  UNL1        0.1687
     24 C         140.8652  143.4711  161.0178 C.3     1  UNL1        0.0609
     25 C         140.3618  143.0766  162.3747 C.3     1  UNL1        0.0758
     26 O         141.1676  145.2667  159.1648 O.3     1  UNL1       -0.4790
     27 C         140.2721  145.1438  157.9677 C.ar    1  UNL1        0.1393
     28 C         139.6372  143.8254  157.6382 C.ar    1  UNL1        0.0378
     29 C         138.7417  143.7024  156.4412 C.ar    1  UNL1        0.0154
     30 C         138.4810  144.8980  155.5736 C.ar    1  UNL1        0.0684
     31 CL        137.5855  144.7751  154.3765 Cl      1  UNL1       -0.0814
     32 C         139.1159  146.2165  155.9030 C.ar    1  UNL1        0.0712
     33 CL        138.8552  147.4121  155.0355 Cl      1  UNL1       -0.0813
     34 C         140.0114  146.3394  157.1001 C.ar    1  UNL1        0.0491
@<TRIPOS>UNITY_ATOM_ATTR
8 1
charge -1
@<TRIPOS>BOND
     1     8     9   ar
     2     9    10   ar
     3     9     7    1
     4     7    11    1
     5    11    12    1
     6    12    13   ar
     7    13    14   ar
     8    14    15   ar
     9    15    16    1
    10    15    17   ar
    11    17    18   ar
    12     7     1    1
    13     1     2    1
    14     2     3    1
    15     3     4    1
    16     4    19    1
    17    19    20    1
    18    20    21    1
    19    21    22    1
    20    22    23    1
    21    23    26    1
    22    26    27    1
    23    27    28   ar
    24    28    29   ar
    25    29    30   ar
    26    30    31    1
    27    30    32   ar
    28    32    33    1
    29    32    34   ar
    30    23    24    1
    31    24    25    1
    32     4     5    1
    33     5     6    1
    34    18    12   ar
    35     6     1    1
    36    25    20    1
    37    34    27   ar
@<TRIPOS>MOLECULE
*****
 34 37 0 0 0
SMALL
GASTEIGER

@<TRIPOS>ATOM
      1 N         141.1412  139.5857  166.8300 N.3     1  UNL1       -0.2691
      2 C         142.0632  138.8591  165.8963 C.3     1  UNL1        0.0724
      3 C         141.5120  138.1702  164.6832 C.3     1  UNL1        0.0188
      4 C         140.0388  138.2079  164.4038 C.3     1  UNL1        0.0188
      5 C         139.1167  138.9346  165.3375 C.3     1  UNL1        0.0188
      6 C         139.6679  139.6235  166.5506 C.3     1  UNL1        0.0724
      7 C         141.6925  140.2746  168.0430 C.3     1  UNL1        0.0987
      8 O         140.4821  139.5272  170.2171 O.co2   1  UNL1       -0.5478
      9 C         141.7152  139.5638  169.3638 C.2     1  UNL1        0.0652
     10 O         142.9710  138.8896  169.8311 O.co2   1  UNL1       -0.5478
     11 C         142.2210  141.6743  167.9354 C.3     1  UNL1        0.0480
     12 C         142.3047  142.3434  166.5955 C.ar    1  UNL1       -0.0203
     13 C         143.6244  142.4473  165.8902 C.ar    1  UNL1       -0.0019
     14 C         143.7081  143.1165  164.5504 C.ar    1  UNL1        0.0293
     15 C         142.4720  143.6817  163.9159 C.ar    1  UNL1        0.1401
     16 F         142.5557  144.3509  162.5760 F       1  UNL1       -0.2042
     17 C         141.1523  143.5778  164.6212 C.ar    1  UNL1        0.0293
     18 C         141.0686  142.9087  165.9610 C.ar    1  UNL1       -0.0019
     19 C         139.4875  137.5191  163.1907 C.3     1  UNL1        0.0721
     20 N         139.1490  138.3149  161.9652 N.3     1  UNL1       -0.2724
     21 C         140.1434  138.4315  160.8482 C.3     1  UNL1        0.0758
     22 C         139.8049  139.2274  159.6227 C.3     1  UNL1        0.0609
     23 C         138.4719  139.9067  159.5141 C.3     1  UNL1        0.1687
     24 C         137.4775  139.7901  160.6310 C.3     1  UNL1        0.0609
     25 C         137.8160  138.9942  161.8566 C.3     1  UNL1        0.0758
     26 O         138.1334  140.7026  158.2886 O.3     1  UNL1       -0.4790
     27 C         138.7412  142.0585  158.0832 C.ar    1  UNL1        0.1393
     28 C         138.8446  142.6325  156.7013 C.ar    1  UNL1        0.0378
     29 C         139.4524  143.9884  156.4959 C.ar    1  UNL1        0.0154
     30 C         139.9568  144.7703  157.6725 C.ar    1  UNL1        0.0684
     31 CL        140.5646  146.1261  157.4671 Cl      1  UNL1       -0.0814
     32 C         139.8533  144.1962  159.0544 C.ar    1  UNL1        0.0712
     33 CL        140.3577  144.9781  160.2310 Cl      1  UNL1       -0.0813
     34 C         139.2455  142.8403  159.2598 C.ar    1  UNL1        0.0491
@<TRIPOS>UNITY_ATOM_ATTR
8 1
charge -1
@<TRIPOS>BOND
     1     8     9   ar
     2     9    10   ar
     3     9     7    1
     4     7    11    1
     5    11    12    1
     6    12    13   ar
     7    13    14   ar
     8    14    15   ar
     9    15    16    1
    10    15    17   ar
    11    17    18   ar
    12     7     1    1
    13     1     2    1
    14     2     3    1
    15     3     4    1
    16     4    19    1
    17    19    20    1
    18    20    21    1
    19    21    22    1
    20    22    23    1
    21    23    26    1
    22    26    27    1
    23    27    28   ar
    24    28    29   ar
    25    29    30   ar
    26    30    31    1
    27    30    32   ar
    28    32    33    1
    29    32    34   ar
    30    23    24    1
    31    24    25    1
    32     4     5    1
    33     5     6    1
    34    18    12   ar
    35     6     1    1
    36    25    20    1
    37    34    27   ar
@<TRIPOS>MOLECULE
*****
 34 37 0 0 0
SMALL
GASTEIGER

@<TRIPOS>ATOM
      1 N         139.5393  139.6255  165.0056 N.3     1  UNL1       -0.2691
      2 C         139.6279  138.3579  164.2086 C.3     1  UNL1        0.0724
      3 C         139.4664  138.3965  162.7178 C.3     1  UNL1        0.0188
      4 C         139.2162  139.7026  162.0241 C.3     1  UNL1        0.0188
      5 C         139.1276  140.9703  162.8211 C.3     1  UNL1        0.0188
      6 C         139.2891  140.9318  164.3119 C.3     1  UNL1        0.0724
      7 C         139.7008  139.5870  166.4964 C.3     1  UNL1        0.0987
      8 O         138.5735  139.5304  168.8365 O.co2   1  UNL1       -0.5478
      9 C         138.5344  139.2267  167.3681 C.2     1  UNL1        0.0652
     10 O         137.3289  138.5629  166.7714 O.co2   1  UNL1       -0.5478
     11 C         141.0286  139.9086  167.1155 C.3     1  UNL1        0.0480
     12 C         142.2274  140.1367  166.2431 C.ar    1  UNL1       -0.0203
     13 C         143.0077  138.9673  165.7201 C.ar    1  UNL1       -0.0019
     14 C         144.2064  139.1954  164.8477 C.ar    1  UNL1        0.0293
     15 C         144.6248  140.5928  164.4984 C.ar    1  UNL1        0.1401
     16 F         145.8236  140.8209  163.6259 F       1  UNL1       -0.2042
     17 C         143.8445  141.7622  165.0213 C.ar    1  UNL1        0.0293
     18 C         142.6458  141.5342  165.8937 C.ar    1  UNL1       -0.0019
     19 C         139.0547  139.7412  160.5333 C.3     1  UNL1        0.0721
     20 N         140.1290  139.1828  159.6478 N.3     1  UNL1       -0.2724
     21 C         141.5720  139.3545  160.0198 C.3     1  UNL1        0.0758
     22 C         142.6463  138.7961  159.1343 C.3     1  UNL1        0.0609
     23 C         142.2776  138.0660  157.8769 C.3     1  UNL1        0.1687
     24 C         140.8347  137.8944  157.5049 C.3     1  UNL1        0.0609
     25 C         139.7603  138.4527  158.3904 C.3     1  UNL1        0.0758
     26 O         143.3519  137.5077  156.9914 O.3     1  UNL1       -0.4790
     27 C         143.1384  136.2013  156.2856 C.ar    1  UNL1        0.1393
     28 C         142.8445  136.1828  154.8148 C.ar    1  UNL1        0.0378
     29 C         142.6310  134.8765  154.1091 C.ar    1  UNL1        0.0154
     30 C         142.7115  133.5887  154.8741 C.ar    1  UNL1        0.0684
     31 CL        142.4981  132.2825  154.1684 Cl      1  UNL1       -0.0814
     32 C         143.0055  133.6073  156.3449 C.ar    1  UNL1        0.0712
     33 CL        143.0860  132.3196  157.1100 Cl      1  UNL1       -0.0813
     34 C         143.2189  134.9136  157.0507 C.ar    1  UNL1        0.0491
@<TRIPOS>UNITY_ATOM_ATTR
8 1
charge -1
@<TRIPOS>BOND
     1     8     9   ar
     2     9    10   ar
     3     9     7    1
     4     7    11    1
     5    11    12    1
     6    12    13   ar
     7    13    14   ar
     8    14    15   ar
     9    15    16    1
    10    15    17   ar
    11    17    18   ar
    12     7     1    1
    13     1     2    1
    14     2     3    1
    15     3     4    1
    16     4    19    1
    17    19    20    1
    18    20    21    1
    19    21    22    1
    20    22    23    1
    21    23    26    1
    22    26    27    1
    23    27    28   ar
    24    28    29   ar
    25    29    30   ar
    26    30    31    1
    27    30    32   ar
    28    32    33    1
    29    32    34   ar
    30    23    24    1
    31    24    25    1
    32     4     5    1
    33     5     6    1
    34    18    12   ar
    35     6     1    1
    36    25    20    1
    37    34    27   ar
@<TRIPOS>MOLECULE
*****
 34 37 0 0 0
SMALL
GASTEIGER

@<TRIPOS>ATOM
      1 N         142.8265  140.3941  167.1221 N.3     1  UNL1       -0.2691
      2 C         142.9411  138.9577  166.7054 C.3     1  UNL1        0.0724
      3 C         143.5640  138.6067  165.3868 C.3     1  UNL1        0.0188
      4 C         144.0724  139.6921  164.4849 C.3     1  UNL1        0.0188
      5 C         143.9578  141.1286  164.9016 C.3     1  UNL1        0.0188
      6 C         143.3349  141.4795  166.2202 C.3     1  UNL1        0.0724
      7 C         142.2036  140.7451  168.4407 C.3     1  UNL1        0.0987
      8 O         143.2539  139.6372  170.5430 O.co2   1  UNL1       -0.5478
      9 C         143.0563  140.8416  169.6710 C.2     1  UNL1        0.0652
     10 O         143.7114  142.1426  170.0293 O.co2   1  UNL1       -0.5478
     11 C         140.7280  140.9994  168.5291 C.3     1  UNL1        0.0480
     12 C         139.8734  140.8913  167.3010 C.ar    1  UNL1       -0.0203
     13 C         139.7519  142.0583  166.3667 C.ar    1  UNL1       -0.0019
     14 C         138.8973  141.9501  165.1387 C.ar    1  UNL1        0.0293
     15 C         138.1642  140.6748  164.8451 C.ar    1  UNL1        0.1401
     16 F         137.3096  140.5666  163.6170 F       1  UNL1       -0.2042
     17 C         138.2857  139.5077  165.7795 C.ar    1  UNL1        0.0293
     18 C         139.1403  139.6160  167.0075 C.ar    1  UNL1       -0.0019
     19 C         144.6953  139.3411  163.1663 C.3     1  UNL1        0.0721
     20 N         143.8565  139.3181  161.9230 N.3     1  UNL1       -0.2724
     21 C         144.0175  140.3935  160.8896 C.3     1  UNL1        0.0758
     22 C         143.1787  140.3706  159.6463 C.3     1  UNL1        0.0609
     23 C         142.1790  139.2722  159.4363 C.3     1  UNL1        0.1687
     24 C         142.0180  138.1968  160.4695 C.3     1  UNL1        0.0609
     25 C         142.8568  138.2198  161.7129 C.3     1  UNL1        0.0758
     26 O         141.3402  139.2492  158.1929 O.3     1  UNL1       -0.4790
     27 C         141.3929  138.0645  157.2744 C.ar    1  UNL1        0.1393
     28 C         140.1350  137.5529  156.6373 C.ar    1  UNL1        0.0378
     29 C         140.1876  136.3682  155.7188 C.ar    1  UNL1        0.0154
     30 C         141.4983  135.6950  155.4374 C.ar    1  UNL1        0.0684
     31 CL        141.5509  134.5103  154.5189 Cl      1  UNL1       -0.0814
     32 C         142.7562  136.2066  156.0745 C.ar    1  UNL1        0.0712
     33 CL        144.0668  135.5335  155.7931 Cl      1  UNL1       -0.0813
     34 C         142.7035  137.3914  156.9930 C.ar    1  UNL1        0.0491
@<TRIPOS>UNITY_ATOM_ATTR
8 1
charge -1
@<TRIPOS>BOND
     1     8     9   ar
     2     9    10   ar
     3     9     7    1
     4     7    11    1
     5    11    12    1
     6    12    13   ar
     7    13    14   ar
     8    14    15   ar
     9    15    16    1
    10    15    17   ar
    11    17    18   ar
    12     7     1    1
    13     1     2    1
    14     2     3    1
    15     3     4    1
    16     4    19    1
    17    19    20    1
    18    20    21    1
    19    21    22    1
    20    22    23    1
    21    23    26    1
    22    26    27    1
    23    27    28   ar
    24    28    29   ar
    25    29    30   ar
    26    30    31    1
    27    30    32   ar
    28    32    33    1
    29    32    34   ar
    30    23    24    1
    31    24    25    1
    32     4     5    1
    33     5     6    1
    34    18    12   ar
    35     6     1    1
    36    25    20    1
    37    34    27   ar
