@<TRIPOS>MOLECULE
*****
 34 37 0 0 0
SMALL
GASTEIGER

@<TRIPOS>ATOM
      1 C         140.7017  142.8346  164.9215 C.ar    1  UNL1        0.0154
      2 C         139.9053  144.1042  164.8618 C.ar    1  UNL1        0.0985
      3 N         139.8985  144.9271  163.6077 N.ar    1  UNL1       -0.2423
      4 C         140.6883  144.4803  162.4132 C.ar    1  UNL1        0.0985
      5 C         141.4848  143.2106  162.4729 C.ar    1  UNL1        0.0152
      6 C         141.4914  142.3877  163.7271 C.ar    1  UNL1       -0.0188
      7 C         142.2879  141.1180  163.7868 C.3     1  UNL1        0.0311
      8 C         139.6293  140.1826  167.6724 C.ar    1  UNL1        0.1754
      9 C         139.6227  141.0055  166.4183 C.ar    1  UNL1        0.0403
     10 C         140.7084  142.0117  166.1757 C.ar    1  UNL1        0.0074
     11 C         141.8007  142.1950  167.1872 C.ar    1  UNL1        0.0403
     12 C         141.8073  141.3722  168.4413 C.ar    1  UNL1        0.1754
     13 C         140.7217  140.3660  168.6839 C.ar    1  UNL1        0.2061
     14 C         137.7779  138.6057  166.7584 C.3     1  UNL1        0.2526
     15 O         138.5436  139.1764  167.9150 O.3     1  UNL1       -0.4683
     16 O         142.8997  141.5555  169.4529 O.3     1  UNL1       -0.4683
     17 C         142.9069  142.7666  170.3378 C.3     1  UNL1        0.2526
     18 O         140.7283  139.5431  169.9381 O.3     1  UNL1       -0.4654
     19 C         140.1450  140.0993  171.2031 C.3     1  UNL1        0.2528
     20 C         142.2745  142.7638  161.2785 C.ar    1  UNL1        0.0013
     21 C         141.5887  142.0547  160.1486 C.ar    1  UNL1        0.0013
     22 C         142.3785  141.6078  158.9541 C.ar    1  UNL1        0.0145
     23 C         143.8540  141.8701  158.8897 C.ar    1  UNL1        0.0479
     24 C         144.5397  142.5792  160.0198 C.ar    1  UNL1        0.0145
     25 C         143.7500  143.0260  161.2141 C.ar    1  UNL1        0.0013
     26 N         144.6437  141.4232  157.6953 N.pl3   1  UNL1       -0.3048
     27 C         145.8388  142.2120  157.2486 C.3     1  UNL1        0.1064
     28 C         146.6286  141.7651  156.0542 C.3     1  UNL1        0.0741
     29 C         147.8237  142.5539  155.6075 C.3     1  UNL1        0.0189
     30 N         146.2232  140.5296  155.3065 N.3     1  UNL1       -0.2969
     31 C         145.0280  139.7409  155.7532 C.3     1  UNL1        0.0741
     32 C         144.6227  138.5053  155.0055 C.3     1  UNL1        0.0189
     33 C         144.2383  140.1877  156.9476 C.3     1  UNL1        0.1064
     34 H         147.0212  139.8948  155.3320 H       1  UNL1        0.1233
@<TRIPOS>BOND
     1    14    15    1
     2    15     8    1
     3     8     9   ar
     4     9    10   ar
     5    10     1    1
     6     1     2   ar
     7     2     3   ar
     8     3     4   ar
     9     4     5   ar
    10     5    20    1
    11    20    21   ar
    12    21    22   ar
    13    22    23   ar
    14    23    26    1
    15    26    27    1
    16    27    28    1
    17    28    29    1
    18    28    30    1
    19    30    31    1
    20    31    32    1
    21    31    33    1
    22    23    24   ar
    23    24    25   ar
    24     5     6   ar
    25     6     7    1
    26    10    11   ar
    27    11    12   ar
    28    12    16    1
    29    16    17    1
    30    12    13   ar
    31    13    18    1
    32    18    19    1
    33    13     8   ar
    34     6     1   ar
    35    25    20   ar
    36    33    26    1
    37    30    34    1
@<TRIPOS>MOLECULE
*****
 34 37 0 0 0
SMALL
GASTEIGER

@<TRIPOS>ATOM
      1 C         140.6631  142.8119  164.8423 C.ar    1  UNL1        0.0154
      2 C         139.8503  144.0705  164.7699 C.ar    1  UNL1        0.0985
      3 N         139.8424  144.8868  163.5115 N.ar    1  UNL1       -0.2423
      4 C         140.6473  144.4445  162.3255 C.ar    1  UNL1        0.0985
      5 C         141.4601  143.1859  162.3979 C.ar    1  UNL1        0.0152
      6 C         141.4680  142.3696  163.6564 C.ar    1  UNL1       -0.0188
      7 C         142.2808  141.1110  163.7288 C.3     1  UNL1        0.0311
      8 C         141.7795  141.3586  168.3625 C.ar    1  UNL1        0.1754
      9 C         141.7716  142.1748  167.1041 C.ar    1  UNL1        0.0403
     10 C         140.6710  141.9956  166.1008 C.ar    1  UNL1        0.0074
     11 C         139.5784  141.0001  166.3559 C.ar    1  UNL1        0.0403
     12 C         139.5863  140.1839  167.6143 C.ar    1  UNL1        0.1754
     13 C         140.6869  140.3631  168.6176 C.ar    1  UNL1        0.2061
     14 C         142.8241  142.6719  170.3458 C.3     1  UNL1        0.2526
     15 O         142.8801  141.5378  169.3658 O.3     1  UNL1       -0.4683
     16 O         138.4936  139.1883  167.8694 O.3     1  UNL1       -0.4683
     17 C         137.8287  138.4931  166.7186 C.3     1  UNL1        0.2526
     18 O         140.6948  139.5468  169.8760 O.3     1  UNL1       -0.4654
     19 C         140.1083  140.1077  171.1375 C.3     1  UNL1        0.2528
     20 C         142.2650  142.7436  161.2120 C.ar    1  UNL1        0.0013
     21 C         141.6043  141.9897  160.0962 C.ar    1  UNL1        0.0013
     22 C         142.4092  141.5473  158.9102 C.ar    1  UNL1        0.0145
     23 C         143.8748  141.8590  158.8401 C.ar    1  UNL1        0.0479
     24 C         144.5355  142.6130  159.9559 C.ar    1  UNL1        0.0145
     25 C         143.7306  143.0553  161.1418 C.ar    1  UNL1        0.0013
     26 N         144.6797  141.4167  157.6541 N.pl3   1  UNL1       -0.3048
     27 C         144.2981  140.1707  156.9113 C.3     1  UNL1        0.1064
     28 C         145.1030  139.7283  155.7253 C.3     1  UNL1        0.0741
     29 C         144.7215  138.4823  154.9826 C.3     1  UNL1        0.0189
     30 N         146.2895  140.5320  155.2822 N.3     1  UNL1       -0.2969
     31 C         146.6710  141.7781  156.0251 C.3     1  UNL1        0.0741
     32 C         147.8575  142.5818  155.5819 C.3     1  UNL1        0.0189
     33 C         145.8661  142.2204  157.2110 C.3     1  UNL1        0.1064
     34 H         146.1143  140.8073  154.3158 H       1  UNL1        0.1233
@<TRIPOS>BOND
     1    14    15    1
     2    15     8    1
     3     8     9   ar
     4     9    10   ar
     5    10     1    1
     6     1     2   ar
     7     2     3   ar
     8     3     4   ar
     9     4     5   ar
    10     5    20    1
    11    20    21   ar
    12    21    22   ar
    13    22    23   ar
    14    23    26    1
    15    26    27    1
    16    27    28    1
    17    28    29    1
    18    28    30    1
    19    30    31    1
    20    31    32    1
    21    31    33    1
    22    23    24   ar
    23    24    25   ar
    24     5     6   ar
    25     6     7    1
    26    10    11   ar
    27    11    12   ar
    28    12    16    1
    29    16    17    1
    30    12    13   ar
    31    13    18    1
    32    18    19    1
    33    13     8   ar
    34     6     1   ar
    35    25    20   ar
    36    33    26    1
    37    30    34    1
@<TRIPOS>MOLECULE
*****
 34 37 0 0 0
SMALL
GASTEIGER

@<TRIPOS>ATOM
      1 C         138.8591  141.4792  163.7561 C.ar    1  UNL1        0.0154
      2 C         137.8215  142.4974  163.3864 C.ar    1  UNL1        0.0985
      3 N         137.6335  142.8896  161.9509 N.ar    1  UNL1       -0.2423
      4 C         138.4831  142.2636  160.8849 C.ar    1  UNL1        0.0985
      5 C         139.5208  141.2454  161.2545 C.ar    1  UNL1        0.0152
      6 C         139.7087  140.8532  162.6902 C.ar    1  UNL1       -0.0188
      7 C         140.7464  139.8351  163.0598 C.3     1  UNL1        0.0311
      8 C         138.5059  139.5071  167.1818 C.ar    1  UNL1        0.1754
      9 C         138.3180  139.8993  165.7463 C.ar    1  UNL1        0.0403
     10 C         139.0471  141.0871  165.1917 C.ar    1  UNL1        0.0074
     11 C         139.9641  141.8826  166.0726 C.ar    1  UNL1        0.0403
     12 C         140.1520  141.4904  167.5082 C.ar    1  UNL1        0.1754
     13 C         139.4229  140.3026  168.0628 C.ar    1  UNL1        0.2061
     14 C         137.4445  137.1598  166.8448 C.3     1  UNL1        0.2526
     15 O         137.7768  138.3193  167.7364 O.3     1  UNL1       -0.4683
     16 O         141.0691  142.2860  168.3892 O.3     1  UNL1       -0.4683
     17 C         140.5092  143.3427  169.2947 C.3     1  UNL1        0.2526
     18 O         139.6109  139.9105  169.4984 O.3     1  UNL1       -0.4654
     19 C         140.9895  139.6557  170.0319 C.3     1  UNL1        0.2528
     20 C         140.3704  140.6194  160.1886 C.ar    1  UNL1        0.0013
     21 C         140.1045  139.2102  159.7490 C.ar    1  UNL1        0.0013
     22 C         140.9542  138.5841  158.6830 C.ar    1  UNL1        0.0145
     23 C         142.0697  139.3674  158.0568 C.ar    1  UNL1        0.0479
     24 C         142.3355  140.7767  158.4965 C.ar    1  UNL1        0.0145
     25 C         141.4859  141.4027  159.5624 C.ar    1  UNL1        0.0013
     26 N         142.9193  138.7414  156.9908 N.pl3   1  UNL1       -0.3048
     27 C         142.9292  137.2514  156.8184 C.3     1  UNL1        0.1064
     28 C         143.7789  136.6253  155.7525 C.3     1  UNL1        0.0741
     29 C         143.7888  135.1353  155.5801 C.3     1  UNL1        0.0189
     30 N         144.6186  137.4893  154.8590 N.3     1  UNL1       -0.2969
     31 C         144.6087  138.9794  155.0314 C.3     1  UNL1        0.0741
     32 C         145.4484  139.8434  154.1379 C.3     1  UNL1        0.0189
     33 C         143.7590  139.6054  156.0973 C.3     1  UNL1        0.1064
     34 H         144.3195  137.3017  153.9021 H       1  UNL1        0.1233
@<TRIPOS>BOND
     1    14    15    1
     2    15     8    1
     3     8     9   ar
     4     9    10   ar
     5    10     1    1
     6     1     2   ar
     7     2     3   ar
     8     3     4   ar
     9     4     5   ar
    10     5    20    1
    11    20    21   ar
    12    21    22   ar
    13    22    23   ar
    14    23    26    1
    15    26    27    1
    16    27    28    1
    17    28    29    1
    18    28    30    1
    19    30    31    1
    20    31    32    1
    21    31    33    1
    22    23    24   ar
    23    24    25   ar
    24     5     6   ar
    25     6     7    1
    26    10    11   ar
    27    11    12   ar
    28    12    16    1
    29    16    17    1
    30    12    13   ar
    31    13    18    1
    32    18    19    1
    33    13     8   ar
    34     6     1   ar
    35    25    20   ar
    36    33    26    1
    37    30    34    1
@<TRIPOS>MOLECULE
*****
 34 37 0 0 0
SMALL
GASTEIGER

@<TRIPOS>ATOM
      1 C         138.8343  141.5059  163.4566 C.ar    1  UNL1        0.0154
      2 C         137.9959  142.7114  163.1504 C.ar    1  UNL1        0.0985
      3 N         137.8003  143.1475  161.7286 N.ar    1  UNL1       -0.2423
      4 C         138.4431  142.3780  160.6129 C.ar    1  UNL1        0.0985
      5 C         139.2815  141.1725  160.9190 C.ar    1  UNL1        0.0152
      6 C         139.4771  140.7364  162.3409 C.ar    1  UNL1       -0.0188
      7 C         140.3155  139.5308  162.6471 C.3     1  UNL1        0.0311
      8 C         140.1909  141.3670  167.1835 C.ar    1  UNL1        0.1754
      9 C         139.9953  141.8030  165.7617 C.ar    1  UNL1        0.0403
     10 C         139.0299  141.0698  164.8784 C.ar    1  UNL1        0.0074
     11 C         138.2600  139.9005  165.4169 C.ar    1  UNL1        0.0403
     12 C         138.4556  139.4645  166.8387 C.ar    1  UNL1        0.1754
     13 C         139.4211  140.1977  167.7220 C.ar    1  UNL1        0.2061
     14 C         140.6619  143.1758  168.9881 C.3     1  UNL1        0.2526
     15 O         141.1564  142.1003  168.0668 O.3     1  UNL1       -0.4683
     16 O         137.6857  138.2951  167.3773 O.3     1  UNL1       -0.4683
     17 C         137.6695  136.9973  166.6254 C.3     1  UNL1        0.2526
     18 O         139.6166  139.7617  169.1439 O.3     1  UNL1       -0.4654
     19 C         138.7134  140.2865  170.2203 C.3     1  UNL1        0.2528
     20 C         139.9243  140.4030  159.8034 C.ar    1  UNL1        0.0013
     21 C         139.2383  139.1983  159.2307 C.ar    1  UNL1        0.0013
     22 C         139.8811  138.4288  158.1150 C.ar    1  UNL1        0.0145
     23 C         141.2099  138.8640  157.5721 C.ar    1  UNL1        0.0479
     24 C         141.8959  140.0688  158.1448 C.ar    1  UNL1        0.0145
     25 C         141.2531  140.8382  159.2605 C.ar    1  UNL1        0.0013
     26 N         141.8527  138.0946  156.4564 N.pl3   1  UNL1       -0.3048
     27 C         141.8362  138.6430  155.0604 C.3     1  UNL1        0.1064
     28 C         142.4790  137.8735  153.9447 C.3     1  UNL1        0.0741
     29 C         142.4626  138.4219  152.5487 C.3     1  UNL1        0.0189
     30 N         143.1383  136.5556  154.2251 N.3     1  UNL1       -0.2969
     31 C         143.1547  136.0072  155.6212 C.3     1  UNL1        0.0741
     32 C         143.8140  134.6894  155.9016 C.3     1  UNL1        0.0189
     33 C         142.5119  136.7767  156.7368 C.3     1  UNL1        0.1064
     34 H         144.1113  136.6449  153.9323 H       1  UNL1        0.1233
@<TRIPOS>BOND
     1    14    15    1
     2    15     8    1
     3     8     9   ar
     4     9    10   ar
     5    10     1    1
     6     1     2   ar
     7     2     3   ar
     8     3     4   ar
     9     4     5   ar
    10     5    20    1
    11    20    21   ar
    12    21    22   ar
    13    22    23   ar
    14    23    26    1
    15    26    27    1
    16    27    28    1
    17    28    29    1
    18    28    30    1
    19    30    31    1
    20    31    32    1
    21    31    33    1
    22    23    24   ar
    23    24    25   ar
    24     5     6   ar
    25     6     7    1
    26    10    11   ar
    27    11    12   ar
    28    12    16    1
    29    16    17    1
    30    12    13   ar
    31    13    18    1
    32    18    19    1
    33    13     8   ar
    34     6     1   ar
    35    25    20   ar
    36    33    26    1
    37    30    34    1
@<TRIPOS>MOLECULE
*****
 34 37 0 0 0
SMALL
GASTEIGER

@<TRIPOS>ATOM
      1 C         143.0466  141.8563  163.8025 C.ar    1  UNL1        0.0154
      2 C         144.5164  141.6272  163.6098 C.ar    1  UNL1        0.0985
      3 N         145.1671  141.9871  162.3071 N.ar    1  UNL1       -0.2423
      4 C         144.3480  142.5762  161.1971 C.ar    1  UNL1        0.0985
      5 C         142.8782  142.8053  161.3898 C.ar    1  UNL1        0.0152
      6 C         142.2275  142.4454  162.6925 C.ar    1  UNL1       -0.0188
      7 C         140.7577  142.6746  162.8853 C.3     1  UNL1        0.0311
      8 C         142.1032  141.8856  167.6573 C.ar    1  UNL1        0.1754
      9 C         142.7538  142.2455  166.3545 C.ar    1  UNL1        0.0403
     10 C         142.3959  141.4964  165.1053 C.ar    1  UNL1        0.0074
     11 C         141.3873  140.3874  165.1587 C.ar    1  UNL1        0.0403
     12 C         140.7367  140.0275  166.4614 C.ar    1  UNL1        0.1754
     13 C         141.0946  140.7766  167.7107 C.ar    1  UNL1        0.2061
     14 C         143.7347  142.3173  169.6325 C.3     1  UNL1        0.2526
     15 O         142.4611  142.6347  168.9065 O.3     1  UNL1       -0.4683
     16 O         139.7281  138.9185  166.5148 O.3     1  UNL1       -0.4683
     17 C         138.2802  139.2082  166.2511 C.3     1  UNL1        0.2526
     18 O         140.4439  140.4167  169.0134 O.3     1  UNL1       -0.4654
     19 C         141.1959  139.6091  170.0294 C.3     1  UNL1        0.2528
     20 C         142.0591  143.3944  160.2798 C.ar    1  UNL1        0.0013
     21 C         141.7599  142.5811  159.0555 C.ar    1  UNL1        0.0013
     22 C         140.9408  143.1701  157.9455 C.ar    1  UNL1        0.0145
     23 C         140.4209  144.5725  158.0598 C.ar    1  UNL1        0.0479
     24 C         140.7201  145.3858  159.2842 C.ar    1  UNL1        0.0145
     25 C         141.5392  144.7968  160.3942 C.ar    1  UNL1        0.0013
     26 N         139.6018  145.1615  156.9499 N.pl3   1  UNL1       -0.3048
     27 C         139.7090  146.6238  156.6333 C.3     1  UNL1        0.1064
     28 C         138.8898  147.2129  155.5233 C.3     1  UNL1        0.0741
     29 C         138.9970  148.6752  155.2068 C.3     1  UNL1        0.0189
     30 N         137.9635  146.3397  154.7299 N.3     1  UNL1       -0.2969
     31 C         137.8564  144.8774  155.0465 C.3     1  UNL1        0.0741
     32 C         136.9301  144.0042  154.2531 C.3     1  UNL1        0.0189
     33 C         138.6755  144.2883  156.1565 C.3     1  UNL1        0.1064
     34 H         138.2560  146.4093  153.7552 H       1  UNL1        0.1233
@<TRIPOS>BOND
     1    14    15    1
     2    15     8    1
     3     8     9   ar
     4     9    10   ar
     5    10     1    1
     6     1     2   ar
     7     2     3   ar
     8     3     4   ar
     9     4     5   ar
    10     5    20    1
    11    20    21   ar
    12    21    22   ar
    13    22    23   ar
    14    23    26    1
    15    26    27    1
    16    27    28    1
    17    28    29    1
    18    28    30    1
    19    30    31    1
    20    31    32    1
    21    31    33    1
    22    23    24   ar
    23    24    25   ar
    24     5     6   ar
    25     6     7    1
    26    10    11   ar
    27    11    12   ar
    28    12    16    1
    29    16    17    1
    30    12    13   ar
    31    13    18    1
    32    18    19    1
    33    13     8   ar
    34     6     1   ar
    35    25    20   ar
    36    33    26    1
    37    30    34    1
@<TRIPOS>MOLECULE
*****
 34 37 0 0 0
SMALL
GASTEIGER

@<TRIPOS>ATOM
      1 C         143.2133  141.8426  163.9384 C.ar    1  UNL1        0.0154
      2 C         144.6430  141.4715  163.6771 C.ar    1  UNL1        0.0985
      3 N         145.2384  141.6906  162.3179 N.ar    1  UNL1       -0.2423
      4 C         144.4040  142.2808  161.2199 C.ar    1  UNL1        0.0985
      5 C         142.9743  142.6519  161.4812 C.ar    1  UNL1        0.0152
      6 C         142.3790  142.4328  162.8405 C.ar    1  UNL1       -0.0188
      7 C         140.9493  142.8040  163.1018 C.3     1  UNL1        0.0311
      8 C         140.8895  140.4375  166.8324 C.ar    1  UNL1        0.1754
      9 C         141.4848  140.6566  165.4732 C.ar    1  UNL1        0.0403
     10 C         142.6180  141.6236  165.2977 C.ar    1  UNL1        0.0074
     11 C         143.1558  142.3715  166.4815 C.ar    1  UNL1        0.0403
     12 C         142.5605  142.1524  167.8407 C.ar    1  UNL1        0.1754
     13 C         141.4273  141.1854  168.0162 C.ar    1  UNL1        0.2061
     14 C         139.0494  138.9174  165.8061 C.3     1  UNL1        0.2526
     15 O         139.7563  139.4704  167.0079 O.3     1  UNL1       -0.4683
     16 O         143.0984  142.9004  169.0245 O.3     1  UNL1       -0.4683
     17 C         144.0599  142.2308  169.9610 C.3     1  UNL1        0.2526
     18 O         140.8320  140.9663  169.3755 O.3     1  UNL1       -0.4654
     19 C         139.8903  141.9804  169.9541 C.3     1  UNL1        0.2528
     20 C         142.1400  143.2421  160.3832 C.ar    1  UNL1        0.0013
     21 C         141.8348  144.7107  160.3800 C.ar    1  UNL1        0.0013
     22 C         141.0004  145.3009  159.2820 C.ar    1  UNL1        0.0145
     23 C         140.4713  144.4225  158.1873 C.ar    1  UNL1        0.0479
     24 C         140.7765  142.9539  158.1906 C.ar    1  UNL1        0.0145
     25 C         141.6109  142.3637  159.2885 C.ar    1  UNL1        0.0013
     26 N         139.6369  145.0127  157.0894 N.pl3   1  UNL1       -0.3048
     27 C         138.7340  144.1320  156.2775 C.3     1  UNL1        0.1064
     28 C         137.8996  144.7222  155.1795 C.3     1  UNL1        0.0741
     29 C         136.9967  143.8415  154.3677 C.3     1  UNL1        0.0189
     30 N         137.9682  146.1931  154.8934 N.3     1  UNL1       -0.2969
     31 C         138.8712  147.0737  155.7053 C.3     1  UNL1        0.0741
     32 C         138.9397  148.5446  155.4192 C.3     1  UNL1        0.0189
     33 C         139.7055  146.4836  156.8033 C.3     1  UNL1        0.1064
     34 H         137.0226  146.5590  155.0042 H       1  UNL1        0.1233
@<TRIPOS>BOND
     1    14    15    1
     2    15     8    1
     3     8     9   ar
     4     9    10   ar
     5    10     1    1
     6     1     2   ar
     7     2     3   ar
     8     3     4   ar
     9     4     5   ar
    10     5    20    1
    11    20    21   ar
    12    21    22   ar
    13    22    23   ar
    14    23    26    1
    15    26    27    1
    16    27    28    1
    17    28    29    1
    18    28    30    1
    19    30    31    1
    20    31    32    1
    21    31    33    1
    22    23    24   ar
    23    24    25   ar
    24     5     6   ar
    25     6     7    1
    26    10    11   ar
    27    11    12   ar
    28    12    16    1
    29    16    17    1
    30    12    13   ar
    31    13    18    1
    32    18    19    1
    33    13     8   ar
    34     6     1   ar
    35    25    20   ar
    36    33    26    1
    37    30    34    1
@<TRIPOS>MOLECULE
*****
 34 37 0 0 0
SMALL
GASTEIGER

@<TRIPOS>ATOM
      1 C         142.7656  141.4693  163.9464 C.ar    1  UNL1        0.0154
      2 C         144.1092  140.8650  163.6644 C.ar    1  UNL1        0.0985
      3 N         144.6870  140.9331  162.2819 N.ar    1  UNL1       -0.2423
      4 C         143.9211  141.6055  161.1812 C.ar    1  UNL1        0.0985
      5 C         142.5775  142.2097  161.4632 C.ar    1  UNL1        0.0152
      6 C         141.9997  142.1416  162.8458 C.ar    1  UNL1       -0.0188
      7 C         140.6561  142.7459  163.1278 C.3     1  UNL1        0.0311
      8 C         140.4001  140.4874  166.9780 C.ar    1  UNL1        0.1754
      9 C         140.9778  140.5556  165.5954 C.ar    1  UNL1        0.0403
     10 C         142.1878  141.4011  165.3290 C.ar    1  UNL1        0.0074
     11 C         142.8200  142.1786  166.4452 C.ar    1  UNL1        0.0403
     12 C         142.2422  142.1104  167.8278 C.ar    1  UNL1        0.1754
     13 C         141.0323  141.2648  168.0941 C.ar    1  UNL1        0.2061
     14 C         138.4261  139.0441  166.1003 C.3     1  UNL1        0.2526
     15 O         139.1901  139.6418  167.2444 O.3     1  UNL1       -0.4683
     16 O         142.8744  142.8879  168.9440 O.3     1  UNL1       -0.4683
     17 C         143.8315  142.2120  169.8806 C.3     1  UNL1        0.2526
     18 O         140.4545  141.1967  169.4768 O.3     1  UNL1       -0.4654
     19 C         140.7815  140.0368  170.3699 C.3     1  UNL1        0.2528
     20 C         141.8116  142.8821  160.3626 C.ar    1  UNL1        0.0013
     21 C         141.8764  144.3724  160.2059 C.ar    1  UNL1        0.0013
     22 C         141.1105  145.0449  159.1052 C.ar    1  UNL1        0.0145
     23 C         140.2798  144.2269  158.1614 C.ar    1  UNL1        0.0479
     24 C         140.2151  142.7365  158.3181 C.ar    1  UNL1        0.0145
     25 C         140.9809  142.0641  159.4187 C.ar    1  UNL1        0.0013
     26 N         139.5140  144.8993  157.0608 N.pl3   1  UNL1       -0.3048
     27 C         139.6676  146.3738  156.8326 C.3     1  UNL1        0.1064
     28 C         138.9017  147.0462  155.7320 C.3     1  UNL1        0.0741
     29 C         139.0553  148.5208  155.5038 C.3     1  UNL1        0.0189
     30 N         137.9822  146.2441  154.8596 N.3     1  UNL1       -0.2969
     31 C         137.8286  144.7694  155.0878 C.3     1  UNL1        0.0741
     32 C         136.9092  143.9673  154.2154 C.3     1  UNL1        0.0189
     33 C         138.5945  144.0971  156.1884 C.3     1  UNL1        0.1064
     34 H         138.3096  146.3611  153.9006 H       1  UNL1        0.1233
@<TRIPOS>BOND
     1    14    15    1
     2    15     8    1
     3     8     9   ar
     4     9    10   ar
     5    10     1    1
     6     1     2   ar
     7     2     3   ar
     8     3     4   ar
     9     4     5   ar
    10     5    20    1
    11    20    21   ar
    12    21    22   ar
    13    22    23   ar
    14    23    26    1
    15    26    27    1
    16    27    28    1
    17    28    29    1
    18    28    30    1
    19    30    31    1
    20    31    32    1
    21    31    33    1
    22    23    24   ar
    23    24    25   ar
    24     5     6   ar
    25     6     7    1
    26    10    11   ar
    27    11    12   ar
    28    12    16    1
    29    16    17    1
    30    12    13   ar
    31    13    18    1
    32    18    19    1
    33    13     8   ar
    34     6     1   ar
    35    25    20   ar
    36    33    26    1
    37    30    34    1
@<TRIPOS>MOLECULE
*****
 34 37 0 0 0
SMALL
GASTEIGER

@<TRIPOS>ATOM
      1 C         141.2533  139.3711  164.5593 C.ar    1  UNL1        0.0154
      2 C         141.5235  137.8961  164.5956 C.ar    1  UNL1        0.0985
      3 N         141.1231  137.0315  163.4371 N.ar    1  UNL1       -0.2423
      4 C         140.4524  137.6419  162.2422 C.ar    1  UNL1        0.0985
      5 C         140.1822  139.1170  162.2059 C.ar    1  UNL1        0.0152
      6 C         140.5826  139.9815  163.3645 C.ar    1  UNL1       -0.0188
      7 C         140.3124  141.4565  163.3282 C.3     1  UNL1        0.0311
      8 C         143.0971  142.1627  166.6940 C.ar    1  UNL1        0.1754
      9 C         142.6967  141.2982  165.5355 C.ar    1  UNL1        0.0403
     10 C         141.6537  140.2357  165.7179 C.ar    1  UNL1        0.0074
     11 C         141.0112  140.0377  167.0587 C.ar    1  UNL1        0.0403
     12 C         141.4116  140.9023  168.2172 C.ar    1  UNL1        0.1754
     13 C         142.4546  141.9648  168.0349 C.ar    1  UNL1        0.2061
     14 C         144.4810  143.7131  165.1349 C.3     1  UNL1        0.2526
     15 O         144.1401  143.2252  166.5117 O.3     1  UNL1       -0.4683
     16 O         140.7691  140.7043  169.5582 O.3     1  UNL1       -0.4683
     17 C         139.2790  140.5677  169.6630 C.3     1  UNL1        0.2526
     18 O         142.8550  142.8293  169.1935 O.3     1  UNL1       -0.4654
     19 C         144.0744  142.4881  169.9976 C.3     1  UNL1        0.2528
     20 C         139.5116  139.7274  161.0112 C.ar    1  UNL1        0.0013
     21 C         140.3326  140.4097  159.9574 C.ar    1  UNL1        0.0013
     22 C         139.6620  141.0202  158.7625 C.ar    1  UNL1        0.0145
     23 C         138.1703  140.9483  158.6215 C.ar    1  UNL1        0.0479
     24 C         137.3493  140.2660  159.6753 C.ar    1  UNL1        0.0145
     25 C         138.0199  139.6556  160.8701 C.ar    1  UNL1        0.0013
     26 N         137.4997  141.5588  157.4267 N.pl3   1  UNL1       -0.3048
     27 C         136.3780  140.8335  156.7442 C.3     1  UNL1        0.1064
     28 C         135.7074  141.4440  155.5494 C.3     1  UNL1        0.0741
     29 C         134.5857  140.7187  154.8669 C.3     1  UNL1        0.0189
     30 N         136.1584  142.7797  155.0370 N.3     1  UNL1       -0.2969
     31 C         137.2801  143.5049  155.7196 C.3     1  UNL1        0.0741
     32 C         137.7312  144.8406  155.2073 C.3     1  UNL1        0.0189
     33 C         137.9508  142.8945  156.9144 C.3     1  UNL1        0.1064
     34 H         135.3467  143.3965  155.0685 H       1  UNL1        0.1233
@<TRIPOS>BOND
     1    14    15    1
     2    15     8    1
     3     8     9   ar
     4     9    10   ar
     5    10     1    1
     6     1     2   ar
     7     2     3   ar
     8     3     4   ar
     9     4     5   ar
    10     5    20    1
    11    20    21   ar
    12    21    22   ar
    13    22    23   ar
    14    23    26    1
    15    26    27    1
    16    27    28    1
    17    28    29    1
    18    28    30    1
    19    30    31    1
    20    31    32    1
    21    31    33    1
    22    23    24   ar
    23    24    25   ar
    24     5     6   ar
    25     6     7    1
    26    10    11   ar
    27    11    12   ar
    28    12    16    1
    29    16    17    1
    30    12    13   ar
    31    13    18    1
    32    18    19    1
    33    13     8   ar
    34     6     1   ar
    35    25    20   ar
    36    33    26    1
    37    30    34    1
@<TRIPOS>MOLECULE
*****
 34 37 0 0 0
SMALL
GASTEIGER

@<TRIPOS>ATOM
      1 C         141.4056  142.3621  157.8994 C.ar    1  UNL1        0.0154
      2 C         141.4386  143.1947  156.6521 C.ar    1  UNL1        0.0985
      3 N         141.6051  142.5361  155.3148 N.ar    1  UNL1       -0.2423
      4 C         141.7385  141.0447  155.2248 C.ar    1  UNL1        0.0985
      5 C         141.7055  140.2120  156.4720 C.ar    1  UNL1        0.0152
      6 C         141.5390  140.8708  157.8093 C.ar    1  UNL1       -0.0188
      7 C         141.5060  140.0382  159.0566 C.3     1  UNL1        0.0311
      8 C         139.7018  143.8596  161.1559 C.ar    1  UNL1        0.1754
      9 C         139.8683  143.2008  159.8186 C.ar    1  UNL1        0.0403
     10 C         141.2391  143.0209  159.2367 C.ar    1  UNL1        0.0074
     11 C         142.4433  143.4997  159.9920 C.ar    1  UNL1        0.0403
     12 C         142.2767  144.1584  161.3293 C.ar    1  UNL1        0.1754
     13 C         140.9060  144.3383  161.9112 C.ar    1  UNL1        0.2061
     14 C         137.7488  142.9810  162.6269 C.3     1  UNL1        0.2526
     15 O         138.3310  144.0395  161.7378 O.3     1  UNL1       -0.4683
     16 O         143.4810  144.6372  162.0847 O.3     1  UNL1       -0.4683
     17 C         144.3838  143.6487  162.7613 C.3     1  UNL1        0.2526
     18 O         140.7395  144.9971  163.2485 O.3     1  UNL1       -0.4654
     19 C         140.7738  144.1718  164.5006 C.3     1  UNL1        0.2528
     20 C         141.8390  138.7207  156.3820 C.ar    1  UNL1        0.0013
     21 C         143.1880  138.0790  156.5172 C.ar    1  UNL1        0.0013
     22 C         143.3215  136.5876  156.4272 C.ar    1  UNL1        0.0145
     23 C         142.1060  135.7381  156.2020 C.ar    1  UNL1        0.0479
     24 C         140.7569  136.3799  156.0667 C.ar    1  UNL1        0.0145
     25 C         140.6235  137.8712  156.1567 C.ar    1  UNL1        0.0013
     26 N         142.2395  134.2468  156.1119 N.pl3   1  UNL1       -0.3048
     27 C         143.3048  133.5404  156.8968 C.3     1  UNL1        0.1064
     28 C         143.4383  132.0490  156.8069 C.3     1  UNL1        0.0741
     29 C         144.5036  131.3427  157.5918 C.3     1  UNL1        0.0189
     30 N         142.5064  131.2641  155.9319 N.3     1  UNL1       -0.2969
     31 C         141.4411  131.9705  155.1470 C.3     1  UNL1        0.0741
     32 C         140.5092  131.1855  154.2720 C.3     1  UNL1        0.0189
     33 C         141.3076  133.4618  155.2370 C.3     1  UNL1        0.1064
     34 H         142.0314  130.5928  156.5353 H       1  UNL1        0.1233
@<TRIPOS>BOND
     1    14    15    1
     2    15     8    1
     3     8     9   ar
     4     9    10   ar
     5    10     1    1
     6     1     2   ar
     7     2     3   ar
     8     3     4   ar
     9     4     5   ar
    10     5    20    1
    11    20    21   ar
    12    21    22   ar
    13    22    23   ar
    14    23    26    1
    15    26    27    1
    16    27    28    1
    17    28    29    1
    18    28    30    1
    19    30    31    1
    20    31    32    1
    21    31    33    1
    22    23    24   ar
    23    24    25   ar
    24     5     6   ar
    25     6     7    1
    26    10    11   ar
    27    11    12   ar
    28    12    16    1
    29    16    17    1
    30    12    13   ar
    31    13    18    1
    32    18    19    1
    33    13     8   ar
    34     6     1   ar
    35    25    20   ar
    36    33    26    1
    37    30    34    1
