@<TRIPOS>MOLECULE
*****
 31 33 0 0 0
SMALL
GASTEIGER

@<TRIPOS>ATOM
      1 N         141.7367  137.8777  161.6690 N.3     1  UNL1       -0.2723
      2 C         140.4894  138.3321  160.9707 C.3     1  UNL1        0.0722
      3 C         139.3905  138.4106  161.9887 C.3     1  UNL1        0.0204
      4 C         139.9587  138.0046  163.3163 C.3     1  UNL1        0.0370
      5 C         141.4088  137.6753  163.1188 C.3     1  UNL1        0.0738
      6 C         143.0767  137.6633  161.0300 C.3     1  UNL1        0.0768
      7 C         144.0920  138.7674  161.0279 C.3     1  UNL1        0.0437
      8 C         144.0642  142.8765  165.4000 C.3     1  UNL1        0.0310
      9 C         144.0711  141.8492  164.3070 C.ar    1  UNL1       -0.0180
     10 C         144.5348  140.4519  164.5939 C.ar    1  UNL1       -0.0046
     11 C         144.5417  139.4246  163.5009 C.ar    1  UNL1       -0.0046
     12 C         144.0850  139.7947  162.1210 C.ar    1  UNL1       -0.0209
     13 C         143.6214  141.1920  161.8340 C.ar    1  UNL1       -0.0007
     14 C         143.6144  142.2193  162.9270 C.ar    1  UNL1        0.0672
     15 C         143.1507  143.6167  162.6399 C.3     1  UNL1        0.4183
     16 F         142.6870  145.0140  162.3529 F       1  UNL1       -0.1659
     17 F         144.5535  144.0085  162.2812 F       1  UNL1       -0.1659
     18 F         141.7480  143.2249  162.9987 F       1  UNL1       -0.1659
     19 C         139.2086  137.9395  164.6136 C.3     1  UNL1        0.0912
     20 N         139.6366  138.7922  165.7711 N.am    1  UNL1       -0.2982
     21 C         138.6800  139.0691  166.8928 C.2     1  UNL1        0.2833
     22 O         137.2954  138.4933  166.8570 O.2     1  UNL1       -0.2667
     23 H         140.5454  139.1702  165.7945 H       1  UNL1        0.1498
     24 C         139.1080  139.9219  168.0502 C.ar    1  UNL1        0.2295
     25 C         140.0433  141.0927  167.9844 C.ar    1  UNL1        0.0629
     26 C         140.1891  141.6480  169.3702 C.ar    1  UNL1        0.1005
     27 N         139.3440  140.8203  170.2924 N.ar    1  UNL1       -0.0812
     28 O         138.6758  139.7536  169.4767 O.2     1  UNL1       -0.3490
     29 C         141.0322  142.8243  169.7644 C.3     1  UNL1        0.0436
     30 C         140.4007  144.1730  169.9440 C.3     1  UNL1        0.0064
     31 C         142.5067  142.6520  169.9791 C.3     1  UNL1        0.0064
@<TRIPOS>BOND
     1     8     9    1
     2     9    10   ar
     3    10    11   ar
     4    11    12   ar
     5    12     7    1
     6     7     6    1
     7     6     1    1
     8     1     2    1
     9     2     3    1
    10     3     4    1
    11     4    19    1
    12    19    20    1
    13    20    21   am
    14    21    22    2
    15    21    24    1
    16    24    25   ar
    17    25    26   ar
    18    26    29    1
    19    29    30    1
    20    29    31    1
    21    26    27   ar
    22    27    28   ar
    23     4     5    1
    24    12    13   ar
    25    13    14   ar
    26    14    15    1
    27    15    16    1
    28    15    17    1
    29    15    18    1
    30    14     9   ar
    31     5     1    1
    32    28    24   ar
    33    20    23    1
@<TRIPOS>MOLECULE
*****
 31 33 0 0 0
SMALL
GASTEIGER

@<TRIPOS>ATOM
      1 N         139.1203  139.9858  160.8826 N.3     1  UNL1       -0.2723
      2 C         137.8215  139.2675  161.0994 C.3     1  UNL1        0.0722
      3 C         137.9617  138.4163  162.3266 C.3     1  UNL1        0.0204
      4 C         139.3472  138.6086  162.8682 C.3     1  UNL1        0.0370
      5 C         140.0633  139.5786  161.9758 C.3     1  UNL1        0.0738
      6 C         139.4230  140.9432  159.7683 C.3     1  UNL1        0.0768
      7 C         139.1082  142.4013  159.9259 C.3     1  UNL1        0.0437
      8 C         138.9563  144.8635  165.3953 C.3     1  UNL1        0.0310
      9 C         138.9942  144.2479  164.0280 C.ar    1  UNL1       -0.0180
     10 C         137.7586  143.6216  163.4529 C.ar    1  UNL1       -0.0046
     11 C         137.7966  143.0060  162.0855 C.ar    1  UNL1       -0.0046
     12 C         139.0702  143.0168  161.2933 C.ar    1  UNL1       -0.0209
     13 C         140.3059  143.6432  161.8684 C.ar    1  UNL1       -0.0007
     14 C         140.2679  144.2587  163.2357 C.ar    1  UNL1        0.0672
     15 C         141.5036  144.8851  163.8108 C.3     1  UNL1        0.4183
     16 F         142.7393  145.5114  164.3859 F       1  UNL1       -0.1659
     17 F         141.2173  146.1468  163.0519 F       1  UNL1       -0.1659
     18 F         141.7899  143.6233  164.5697 F       1  UNL1       -0.1659
     19 C         139.9167  137.9471  164.0881 C.3     1  UNL1        0.0912
     20 N         140.2175  138.7613  165.3115 N.am    1  UNL1       -0.2982
     21 C         139.1167  139.1123  166.2681 C.2     1  UNL1        0.2833
     22 O         137.7152  138.6491  166.0013 O.2     1  UNL1       -0.2667
     23 H         141.1373  139.0653  165.4866 H       1  UNL1        0.1498
     24 C         139.4174  139.9265  167.4915 C.ar    1  UNL1        0.2295
     25 C         140.3152  141.1266  167.5532 C.ar    1  UNL1        0.0629
     26 C         140.3258  141.6253  168.9678 C.ar    1  UNL1        0.1005
     27 N         139.4347  140.7334  169.7803 N.ar    1  UNL1       -0.0812
     28 O         138.8732  139.6835  168.8680 O.2     1  UNL1       -0.3490
     29 C         141.0929  142.8082  169.4798 C.3     1  UNL1        0.0436
     30 C         140.3654  144.0565  169.8828 C.3     1  UNL1        0.0064
     31 C         142.5875  142.7428  169.5889 C.3     1  UNL1        0.0064
@<TRIPOS>BOND
     1     8     9    1
     2     9    10   ar
     3    10    11   ar
     4    11    12   ar
     5    12     7    1
     6     7     6    1
     7     6     1    1
     8     1     2    1
     9     2     3    1
    10     3     4    1
    11     4    19    1
    12    19    20    1
    13    20    21   am
    14    21    22    2
    15    21    24    1
    16    24    25   ar
    17    25    26   ar
    18    26    29    1
    19    29    30    1
    20    29    31    1
    21    26    27   ar
    22    27    28   ar
    23     4     5    1
    24    12    13   ar
    25    13    14   ar
    26    14    15    1
    27    15    16    1
    28    15    17    1
    29    15    18    1
    30    14     9   ar
    31     5     1    1
    32    28    24   ar
    33    20    23    1
@<TRIPOS>MOLECULE
*****
 31 33 0 0 0
SMALL
GASTEIGER

@<TRIPOS>ATOM
      1 N         139.3035  138.7267  161.0430 N.3     1  UNL1       -0.2723
      2 C         140.6178  138.0611  161.3252 C.3     1  UNL1        0.0722
      3 C         140.6223  137.6350  162.7635 C.3     1  UNL1        0.0204
      4 C         139.3108  138.0373  163.3702 C.3     1  UNL1        0.0370
      5 C         138.4957  138.7120  162.3069 C.3     1  UNL1        0.0738
      6 C         138.8726  139.3053  159.7279 C.3     1  UNL1        0.0768
      7 C         138.0650  140.5688  159.6930 C.3     1  UNL1        0.0437
      8 C         140.1691  145.5475  162.2978 C.3     1  UNL1        0.0310
      9 C         139.6431  144.3028  161.6466 C.ar    1  UNL1       -0.0180
     10 C         140.1616  143.8826  160.3033 C.ar    1  UNL1       -0.0046
     11 C         139.6356  142.6379  159.6521 C.ar    1  UNL1       -0.0046
     12 C         138.5910  141.8134  160.3442 C.ar    1  UNL1       -0.0209
     13 C         138.0725  142.2336  161.6876 C.ar    1  UNL1       -0.0007
     14 C         138.5985  143.4783  162.3388 C.ar    1  UNL1        0.0672
     15 C         138.0800  143.8985  163.6821 C.3     1  UNL1        0.4183
     16 F         137.5614  144.3186  165.0254 F       1  UNL1       -0.1659
     17 F         139.1052  143.0305  164.3495 F       1  UNL1       -0.1659
     18 F         137.0547  144.7665  163.0148 F       1  UNL1       -0.1659
     19 C         138.8885  137.8057  164.7907 C.3     1  UNL1        0.0912
     20 N         139.3510  138.7367  165.8720 N.am    1  UNL1       -0.2982
     21 C         138.5179  138.9273  167.1047 C.2     1  UNL1        0.2833
     22 O         137.2222  138.1868  167.2561 O.2     1  UNL1       -0.2667
     23 H         140.2014  139.2227  165.7727 H       1  UNL1        0.1498
     24 C         138.9804  139.8584  168.1861 C.ar    1  UNL1        0.2295
     25 C         139.9511  140.9897  168.0198 C.ar    1  UNL1        0.0629
     26 C         140.1241  141.6521  169.3544 C.ar    1  UNL1        0.1005
     27 N         139.2602  140.9301  170.3456 N.ar    1  UNL1       -0.0812
     28 O         138.5534  139.8215  169.6235 O.2     1  UNL1       -0.3490
     29 C         141.0060  142.8296  169.6466 C.3     1  UNL1        0.0436
     30 C         140.3967  144.1683  169.9407 C.3     1  UNL1        0.0064
     31 C         142.4973  142.6685  169.6447 C.3     1  UNL1        0.0064
@<TRIPOS>BOND
     1     8     9    1
     2     9    10   ar
     3    10    11   ar
     4    11    12   ar
     5    12     7    1
     6     7     6    1
     7     6     1    1
     8     1     2    1
     9     2     3    1
    10     3     4    1
    11     4    19    1
    12    19    20    1
    13    20    21   am
    14    21    22    2
    15    21    24    1
    16    24    25   ar
    17    25    26   ar
    18    26    29    1
    19    29    30    1
    20    29    31    1
    21    26    27   ar
    22    27    28   ar
    23     4     5    1
    24    12    13   ar
    25    13    14   ar
    26    14    15    1
    27    15    16    1
    28    15    17    1
    29    15    18    1
    30    14     9   ar
    31     5     1    1
    32    28    24   ar
    33    20    23    1
@<TRIPOS>MOLECULE
*****
 31 33 0 0 0
SMALL
GASTEIGER

@<TRIPOS>ATOM
      1 N         142.0505  138.4055  161.1527 N.3     1  UNL1       -0.2723
      2 C         140.9543  138.6684  160.1631 C.3     1  UNL1        0.0722
      3 C         139.6444  138.3800  160.8346 C.3     1  UNL1        0.0204
      4 C         139.9310  137.9389  162.2393 C.3     1  UNL1        0.0370
      5 C         141.4180  137.9546  162.4360 C.3     1  UNL1        0.0738
      6 C         143.5208  138.5655  160.9030 C.3     1  UNL1        0.0768
      7 C         144.2125  139.8399  161.2869 C.3     1  UNL1        0.0437
      8 C         143.1815  142.3133  166.6553 C.3     1  UNL1        0.0310
      9 C         143.4393  141.6949  165.3132 C.ar    1  UNL1       -0.0180
     10 C         144.0171  140.3137  165.2223 C.ar    1  UNL1       -0.0046
     11 C         144.2749  139.6954  163.8802 C.ar    1  UNL1       -0.0046
     12 C         143.9548  140.4582  162.6290 C.ar    1  UNL1       -0.0209
     13 C         143.3770  141.8394  162.7199 C.ar    1  UNL1       -0.0007
     14 C         143.1192  142.4578  164.0620 C.ar    1  UNL1        0.0672
     15 C         142.5414  143.8391  164.1528 C.3     1  UNL1        0.4183
     16 F         141.9636  145.2203  164.2437 F       1  UNL1       -0.1659
     17 F         141.1577  143.2601  164.1563 F       1  UNL1       -0.1659
     18 F         143.9251  144.4181  164.1494 F       1  UNL1       -0.1659
     19 C         138.9098  137.5502  163.2671 C.3     1  UNL1        0.0912
     20 N         139.1196  137.9129  164.7074 N.am    1  UNL1       -0.2982
     21 C         138.6946  139.2604  165.2110 C.2     1  UNL1        0.2833
     22 O         138.0599  140.2452  164.2744 O.2     1  UNL1       -0.2667
     23 H         139.5362  137.2666  165.3221 H       1  UNL1        0.1498
     24 C         138.9044  139.6231  166.6513 C.ar    1  UNL1        0.2295
     25 C         139.8029  140.7088  167.1653 C.ar    1  UNL1        0.0629
     26 C         139.7063  140.7205  168.6621 C.ar    1  UNL1        0.1005
     27 N         138.7482  139.6422  169.0732 N.ar    1  UNL1       -0.0812
     28 O         138.2526  138.9639  167.8305 O.2     1  UNL1       -0.3490
     29 C         140.4392  141.6478  169.5856 C.3     1  UNL1        0.0436
     30 C         141.1809  141.0976  170.7676 C.3     1  UNL1        0.0064
     31 C         140.4303  143.1254  169.3272 C.3     1  UNL1        0.0064
@<TRIPOS>BOND
     1     8     9    1
     2     9    10   ar
     3    10    11   ar
     4    11    12   ar
     5    12     7    1
     6     7     6    1
     7     6     1    1
     8     1     2    1
     9     2     3    1
    10     3     4    1
    11     4    19    1
    12    19    20    1
    13    20    21   am
    14    21    22    2
    15    21    24    1
    16    24    25   ar
    17    25    26   ar
    18    26    29    1
    19    29    30    1
    20    29    31    1
    21    26    27   ar
    22    27    28   ar
    23     4     5    1
    24    12    13   ar
    25    13    14   ar
    26    14    15    1
    27    15    16    1
    28    15    17    1
    29    15    18    1
    30    14     9   ar
    31     5     1    1
    32    28    24   ar
    33    20    23    1
@<TRIPOS>MOLECULE
*****
 31 33 0 0 0
SMALL
GASTEIGER

@<TRIPOS>ATOM
      1 N         139.2826  139.3073  161.2041 N.3     1  UNL1       -0.2723
      2 C         138.2214  138.4190  161.7826 C.3     1  UNL1        0.0722
      3 C         138.8262  137.6573  162.9245 C.3     1  UNL1        0.0204
      4 C         140.2613  138.0749  163.0518 C.3     1  UNL1        0.0370
      5 C         140.5434  139.0947  161.9885 C.3     1  UNL1        0.0738
      6 C         139.1128  140.2439  160.0448 C.3     1  UNL1        0.0768
      7 C         138.4382  141.5688  160.2435 C.3     1  UNL1        0.0437
      8 C         138.9810  144.4573  165.4743 C.3     1  UNL1        0.0310
      9 C         138.8453  143.7351  164.1666 C.ar    1  UNL1       -0.0180
     10 C         137.6842  142.8141  163.9354 C.ar    1  UNL1       -0.0046
     11 C         137.5485  142.0920  162.6277 C.ar    1  UNL1       -0.0046
     12 C         138.5739  142.2909  161.5512 C.ar    1  UNL1       -0.0209
     13 C         139.7350  143.2119  161.7824 C.ar    1  UNL1       -0.0007
     14 C         139.8707  143.9340  163.0901 C.ar    1  UNL1        0.0672
     15 C         141.0319  144.8551  163.3213 C.3     1  UNL1        0.4183
     16 F         142.1931  145.7760  163.5524 F       1  UNL1       -0.1659
     17 F         140.2774  145.9717  162.6628 F       1  UNL1       -0.1659
     18 F         141.7865  143.7384  163.9797 F       1  UNL1       -0.1659
     19 C         141.2422  137.5627  164.0645 C.3     1  UNL1        0.0912
     20 N         141.3239  138.2013  165.4193 N.am    1  UNL1       -0.2982
     21 C         142.4530  139.1347  165.7416 C.2     1  UNL1        0.2833
     22 O         143.5004  139.4295  164.7091 O.2     1  UNL1       -0.2667
     23 H         140.6364  138.0079  166.0970 H       1  UNL1        0.1498
     24 C         142.5347  139.7734  167.0964 C.ar    1  UNL1        0.2295
     25 C         142.0767  141.1579  167.4475 C.ar    1  UNL1        0.0629
     26 C         142.3477  141.3798  168.9061 C.ar    1  UNL1        0.1005
     27 N         142.9731  140.1325  169.4563 N.ar    1  UNL1       -0.0812
     28 O         143.0887  139.1396  168.3379 O.2     1  UNL1       -0.3490
     29 C         142.0462  142.6297  169.6786 C.3     1  UNL1        0.0436
     30 C         140.7193  143.3101  169.5161 C.3     1  UNL1        0.0064
     31 C         143.0716  143.1992  170.6137 C.3     1  UNL1        0.0064
@<TRIPOS>BOND
     1     8     9    1
     2     9    10   ar
     3    10    11   ar
     4    11    12   ar
     5    12     7    1
     6     7     6    1
     7     6     1    1
     8     1     2    1
     9     2     3    1
    10     3     4    1
    11     4    19    1
    12    19    20    1
    13    20    21   am
    14    21    22    2
    15    21    24    1
    16    24    25   ar
    17    25    26   ar
    18    26    29    1
    19    29    30    1
    20    29    31    1
    21    26    27   ar
    22    27    28   ar
    23     4     5    1
    24    12    13   ar
    25    13    14   ar
    26    14    15    1
    27    15    16    1
    28    15    17    1
    29    15    18    1
    30    14     9   ar
    31     5     1    1
    32    28    24   ar
    33    20    23    1
@<TRIPOS>MOLECULE
*****
 31 33 0 0 0
SMALL
GASTEIGER

@<TRIPOS>ATOM
      1 N         139.7212  139.2946  165.6115 N.3     1  UNL1       -0.2723
      2 C         139.4017  137.8562  165.3304 C.3     1  UNL1        0.0722
      3 C         138.9439  137.7530  163.9057 C.3     1  UNL1        0.0204
      4 C         138.9804  139.1275  163.3064 C.3     1  UNL1        0.0370
      5 C         139.4608  140.0804  164.3606 C.3     1  UNL1        0.0738
      6 C         140.2145  139.8498  166.9148 C.3     1  UNL1        0.0768
      7 C         141.6766  139.7995  167.2460 C.3     1  UNL1        0.0437
      8 C         145.7189  141.8121  163.2952 C.3     1  UNL1        0.0310
      9 C         144.7083  141.3090  164.2829 C.ar    1  UNL1       -0.0180
     10 C         144.5409  139.8342  164.4994 C.ar    1  UNL1       -0.0046
     11 C         143.5304  139.3310  165.4871 C.ar    1  UNL1       -0.0046
     12 C         142.6872  140.3026  166.2583 C.ar    1  UNL1       -0.0209
     13 C         142.8545  141.7774  166.0419 C.ar    1  UNL1       -0.0007
     14 C         143.8651  142.2806  165.0542 C.ar    1  UNL1        0.0672
     15 C         144.0325  143.7555  164.8378 C.3     1  UNL1        0.4183
     16 F         144.1998  145.2303  164.6214 F       1  UNL1       -0.1659
     17 F         142.9855  143.7168  163.7644 F       1  UNL1       -0.1659
     18 F         145.0795  143.7941  165.9112 F       1  UNL1       -0.1659
     19 C         138.6027  139.4863  161.8997 C.3     1  UNL1        0.0912
     20 N         139.1697  140.7202  161.2624 N.am    1  UNL1       -0.2982
     21 C         138.5282  142.0536  161.5080 C.2     1  UNL1        0.2833
     22 O         137.3196  142.1532  162.3909 O.2     1  UNL1       -0.2667
     23 H         139.9629  140.6548  160.6830 H       1  UNL1        0.1498
     24 C         139.0952  143.2875  160.8707 C.ar    1  UNL1        0.2295
     25 C         139.7931  143.3537  159.5446 C.ar    1  UNL1        0.0629
     26 C         140.1930  144.7789  159.3020 C.ar    1  UNL1        0.1005
     27 N         139.7423  145.5934  160.4781 N.ar    1  UNL1       -0.0812
     28 O         139.0638  144.6717  161.4476 O.2     1  UNL1       -0.3490
     29 C         140.9166  145.2983  158.0951 C.3     1  UNL1        0.0436
     30 C         140.2484  146.2894  157.1890 C.3     1  UNL1        0.0064
     31 C         142.3084  144.8265  157.7944 C.3     1  UNL1        0.0064
@<TRIPOS>BOND
     1     8     9    1
     2     9    10   ar
     3    10    11   ar
     4    11    12   ar
     5    12     7    1
     6     7     6    1
     7     6     1    1
     8     1     2    1
     9     2     3    1
    10     3     4    1
    11     4    19    1
    12    19    20    1
    13    20    21   am
    14    21    22    2
    15    21    24    1
    16    24    25   ar
    17    25    26   ar
    18    26    29    1
    19    29    30    1
    20    29    31    1
    21    26    27   ar
    22    27    28   ar
    23     4     5    1
    24    12    13   ar
    25    13    14   ar
    26    14    15    1
    27    15    16    1
    28    15    17    1
    29    15    18    1
    30    14     9   ar
    31     5     1    1
    32    28    24   ar
    33    20    23    1
@<TRIPOS>MOLECULE
*****
 31 33 0 0 0
SMALL
GASTEIGER

@<TRIPOS>ATOM
      1 N         140.9867  138.6140  160.4934 N.3     1  UNL1       -0.2723
      2 C         139.7738  139.4023  160.0965 C.3     1  UNL1        0.0722
      3 C         138.6996  139.1422  161.1106 C.3     1  UNL1        0.0204
      4 C         139.2486  138.1931  162.1343 C.3     1  UNL1        0.0370
      5 C         140.6621  137.8666  161.7528 C.3     1  UNL1        0.0738
      6 C         142.2946  138.5792  159.7596 C.3     1  UNL1        0.0768
      7 C         143.5695  138.8954  160.4839 C.3     1  UNL1        0.0437
      8 C         143.3876  141.5980  165.8376 C.3     1  UNL1        0.0310
      9 C         143.4330  140.9224  164.4992 C.ar    1  UNL1       -0.0180
     10 C         143.2701  141.7297  163.2456 C.ar    1  UNL1       -0.0046
     11 C         143.3156  141.0540  161.9071 C.ar    1  UNL1       -0.0046
     12 C         143.5240  139.5710  161.8223 C.ar    1  UNL1       -0.0209
     13 C         143.6869  138.7637  163.0759 C.ar    1  UNL1       -0.0007
     14 C         143.6414  139.4394  164.4144 C.ar    1  UNL1        0.0672
     15 C         143.8043  138.6319  165.6680 C.3     1  UNL1        0.4183
     16 F         143.9672  137.8245  166.9216 F       1  UNL1       -0.1659
     17 F         145.2948  138.6838  165.5078 F       1  UNL1       -0.1659
     18 F         142.3138  138.5801  165.8283 F       1  UNL1       -0.1659
     19 C         138.5132  137.6634  163.3295 C.3     1  UNL1        0.0912
     20 N         138.9373  138.0670  164.7106 N.am    1  UNL1       -0.2982
     21 C         138.5776  139.4239  165.2391 C.2     1  UNL1        0.2833
     22 O         137.7939  140.3772  164.3865 O.2     1  UNL1       -0.2667
     23 H         139.4517  137.4413  165.2701 H       1  UNL1        0.1498
     24 C         139.0017  139.8275  166.6201 C.ar    1  UNL1        0.2295
     25 C         139.9246  140.9591  166.9637 C.ar    1  UNL1        0.0629
     26 C         140.0706  141.0013  168.4559 C.ar    1  UNL1        0.1005
     27 N         139.2381  139.8960  169.0346 N.ar    1  UNL1       -0.0812
     28 O         138.5775  139.1705  167.9000 O.2     1  UNL1       -0.3490
     29 C         140.9030  141.9776  169.2330 C.3     1  UNL1        0.0436
     30 C         142.1853  141.5298  169.8695 C.3     1  UNL1        0.0064
     31 C         140.4532  143.4016  169.3736 C.3     1  UNL1        0.0064
@<TRIPOS>BOND
     1     8     9    1
     2     9    10   ar
     3    10    11   ar
     4    11    12   ar
     5    12     7    1
     6     7     6    1
     7     6     1    1
     8     1     2    1
     9     2     3    1
    10     3     4    1
    11     4    19    1
    12    19    20    1
    13    20    21   am
    14    21    22    2
    15    21    24    1
    16    24    25   ar
    17    25    26   ar
    18    26    29    1
    19    29    30    1
    20    29    31    1
    21    26    27   ar
    22    27    28   ar
    23     4     5    1
    24    12    13   ar
    25    13    14   ar
    26    14    15    1
    27    15    16    1
    28    15    17    1
    29    15    18    1
    30    14     9   ar
    31     5     1    1
    32    28    24   ar
    33    20    23    1
@<TRIPOS>MOLECULE
*****
 31 33 0 0 0
SMALL
GASTEIGER

@<TRIPOS>ATOM
      1 N         139.9871  140.0698  161.0724 N.3     1  UNL1       -0.2723
      2 C         138.8096  139.2889  160.5689 C.3     1  UNL1        0.0722
      3 C         138.1978  138.5696  161.7343 C.3     1  UNL1        0.0204
      4 C         138.9972  138.9059  162.9582 C.3     1  UNL1        0.0370
      5 C         140.1032  139.8331  162.5491 C.3     1  UNL1        0.0738
      6 C         140.8901  140.9355  160.2446 C.3     1  UNL1        0.0768
      7 C         141.1121  142.3689  160.6266 C.3     1  UNL1        0.0437
      8 C         144.5298  143.7144  165.3710 C.3     1  UNL1        0.0310
      9 C         143.6754  143.3780  164.1849 C.ar    1  UNL1       -0.0180
     10 C         142.6235  144.3415  163.7209 C.ar    1  UNL1       -0.0046
     11 C         141.7691  144.0051  162.5348 C.ar    1  UNL1       -0.0046
     12 C         141.9665  142.7053  161.8127 C.ar    1  UNL1       -0.0209
     13 C         143.0184  141.7419  162.2767 C.ar    1  UNL1       -0.0007
     14 C         143.8728  142.0782  163.4628 C.ar    1  UNL1        0.0672
     15 C         144.9247  141.1147  163.9268 C.3     1  UNL1        0.4183
     16 F         145.9766  140.1513  164.3908 F       1  UNL1       -0.1659
     17 F         145.9332  141.7918  163.0467 F       1  UNL1       -0.1659
     18 F         143.9163  140.4377  164.8070 F       1  UNL1       -0.1659
     19 C         138.7366  138.4033  164.3472 C.3     1  UNL1        0.0912
     20 N         139.2177  139.1883  165.5314 N.am    1  UNL1       -0.2982
     21 C         138.4813  139.1054  166.8356 C.2     1  UNL1        0.2833
     22 O         137.2638  138.2374  166.9555 O.2     1  UNL1       -0.2667
     23 H         140.0168  139.7579  165.4527 H       1  UNL1        0.1498
     24 C         138.9624  139.8903  168.0198 C.ar    1  UNL1        0.2295
     25 C         139.9482  141.0204  167.9870 C.ar    1  UNL1        0.0629
     26 C         140.1372  141.5115  169.3917 C.ar    1  UNL1        0.1005
     27 N         139.2683  140.6850  170.2925 N.ar    1  UNL1       -0.0812
     28 O         138.5422  139.6831  169.4447 O.2     1  UNL1       -0.3490
     29 C         141.0372  142.6324  169.8202 C.3     1  UNL1        0.0436
     30 C         140.4800  144.0127  170.0050 C.3     1  UNL1        0.0064
     31 C         142.4944  142.3729  170.0638 C.3     1  UNL1        0.0064
@<TRIPOS>BOND
     1     8     9    1
     2     9    10   ar
     3    10    11   ar
     4    11    12   ar
     5    12     7    1
     6     7     6    1
     7     6     1    1
     8     1     2    1
     9     2     3    1
    10     3     4    1
    11     4    19    1
    12    19    20    1
    13    20    21   am
    14    21    22    2
    15    21    24    1
    16    24    25   ar
    17    25    26   ar
    18    26    29    1
    19    29    30    1
    20    29    31    1
    21    26    27   ar
    22    27    28   ar
    23     4     5    1
    24    12    13   ar
    25    13    14   ar
    26    14    15    1
    27    15    16    1
    28    15    17    1
    29    15    18    1
    30    14     9   ar
    31     5     1    1
    32    28    24   ar
    33    20    23    1
@<TRIPOS>MOLECULE
*****
 31 33 0 0 0
SMALL
GASTEIGER

@<TRIPOS>ATOM
      1 N         138.8826  138.9217  160.6269 N.3     1  UNL1       -0.2723
      2 C         137.8908  138.4930  161.6674 C.3     1  UNL1        0.0722
      3 C         138.6429  137.8113  162.7717 C.3     1  UNL1        0.0204
      4 C         140.0996  137.8187  162.4138 C.3     1  UNL1        0.0370
      5 C         140.2478  138.5049  161.0882 C.3     1  UNL1        0.0738
      6 C         138.5651  139.6408  159.3494 C.3     1  UNL1        0.0768
      7 C         138.4117  141.1329  159.3468 C.3     1  UNL1        0.0437
      8 C         140.9018  144.4123  163.7108 C.3     1  UNL1        0.0310
      9 C         140.2793  143.5924  162.6198 C.ar    1  UNL1       -0.0180
     10 C         141.1122  143.1291  161.4616 C.ar    1  UNL1       -0.0046
     11 C         140.4896  142.3092  160.3706 C.ar    1  UNL1       -0.0046
     12 C         139.0342  141.9527  160.4378 C.ar    1  UNL1       -0.0209
     13 C         138.2013  142.4161  161.5960 C.ar    1  UNL1       -0.0007
     14 C         138.8238  143.2359  162.6871 C.ar    1  UNL1        0.0672
     15 C         137.9908  143.6992  163.8453 C.3     1  UNL1        0.4183
     16 F         137.1579  144.1626  165.0035 F       1  UNL1       -0.1659
     17 F         138.4311  142.5054  164.6396 F       1  UNL1       -0.1659
     18 F         137.5505  144.8931  163.0511 F       1  UNL1       -0.1659
     19 C         141.2127  137.2412  163.2369 C.3     1  UNL1        0.0912
     20 N         141.3130  137.5681  164.6974 N.am    1  UNL1       -0.2982
     21 C         141.9927  138.8304  165.1385 C.2     1  UNL1        0.2833
     22 O         142.5721  139.7658  164.1191 O.2     1  UNL1       -0.2667
     23 H         140.9327  136.9541  165.3665 H       1  UNL1        0.1498
     24 C         142.0930  139.1573  166.5991 C.ar    1  UNL1        0.2295
     25 C         141.0971  139.9462  167.3964 C.ar    1  UNL1        0.0629
     26 C         141.5954  140.0291  168.8088 C.ar    1  UNL1        0.1005
     27 N         142.8992  139.2915  168.8843 N.ar    1  UNL1       -0.0812
     28 O         143.2068  138.7526  167.5187 O.2     1  UNL1       -0.3490
     29 C         140.9101  140.7271  169.9459 C.3     1  UNL1        0.0436
     30 C         141.6790  141.6775  170.8151 C.3     1  UNL1        0.0064
     31 C         139.4559  140.4748  170.2138 C.3     1  UNL1        0.0064
@<TRIPOS>BOND
     1     8     9    1
     2     9    10   ar
     3    10    11   ar
     4    11    12   ar
     5    12     7    1
     6     7     6    1
     7     6     1    1
     8     1     2    1
     9     2     3    1
    10     3     4    1
    11     4    19    1
    12    19    20    1
    13    20    21   am
    14    21    22    2
    15    21    24    1
    16    24    25   ar
    17    25    26   ar
    18    26    29    1
    19    29    30    1
    20    29    31    1
    21    26    27   ar
    22    27    28   ar
    23     4     5    1
    24    12    13   ar
    25    13    14   ar
    26    14    15    1
    27    15    16    1
    28    15    17    1
    29    15    18    1
    30    14     9   ar
    31     5     1    1
    32    28    24   ar
    33    20    23    1
