@<TRIPOS>MOLECULE
*****
 32 36 0 0 0
SMALL
GASTEIGER

@<TRIPOS>ATOM
      1 N         137.8293  140.0818  164.4822 N.pl3   1  UNL1       -0.2806
      2 H         136.8729  140.3048  164.4128 H       1  UNL1        0.1551
      3 C         137.5103  137.9156  166.9020 C.3     1  UNL1        0.0553
      4 C         138.3715  139.1435  166.9256 C.ar    1  UNL1        0.0935
      5 N         139.2374  139.5913  168.0657 N.ar    1  UNL1       -0.1727
      6 N         139.9192  140.8638  167.6581 N.ar    1  UNL1       -0.2558
      7 C         139.4747  141.2024  166.2661 C.ar    1  UNL1        0.0704
      8 C         139.9101  142.3947  165.4670 C.3     1  UNL1        0.0531
      9 C         138.5182  140.1392  165.8133 C.ar    1  UNL1        0.0792
     10 C         140.8772  141.6581  168.4954 C.3     1  UNL1        0.1076
     11 C         142.3293  141.2840  168.5323 C.3     1  UNL1        0.0415
     12 C         143.2875  142.0784  169.3697 C.3     1  UNL1        0.0706
     13 N         142.7933  143.2468  170.1701 N.3     1  UNL1       -0.2974
     14 C         141.3411  143.6209  170.1332 C.3     1  UNL1        0.0706
     15 C         140.3832  142.8264  169.2958 C.3     1  UNL1        0.0415
     16 H         143.3158  144.0632  169.8527 H       1  UNL1        0.1232
     17 C         138.5975  139.6845  163.2566 C.ar    1  UNL1        0.2208
     18 N         138.0698  138.6058  162.3576 N.ar    1  UNL1       -0.2111
     19 C         138.8380  138.2086  161.1321 C.ar    1  UNL1        0.1147
     20 C         140.1338  138.8899  160.8054 C.ar    1  UNL1        0.0946
     21 CL        140.9020  138.4926  159.5799 Cl      1  UNL1       -0.0790
     22 C         140.6615  139.9686  161.7045 C.ar    1  UNL1        0.0992
     23 N         139.8933  140.3658  162.9300 N.ar    1  UNL1       -0.2126
     24 C         141.9573  140.6499  161.3779 C.ar    1  UNL1        0.0572
     25 C         142.3423  141.2196  160.0447 C.ar    1  UNL1        0.1235
     26 N         143.7185  141.8029  160.1700 N.ar    1  UNL1       -0.1634
     27 N         144.1840  141.5938  161.5806 N.ar    1  UNL1       -0.2281
     28 C         145.4585  141.9602  162.2817 C.ar    1  UNL1        0.1004
     29 C         145.6443  141.6140  163.7292 C.ar    1  UNL1        0.0207
     30 C         144.5558  140.9013  164.4757 C.ar    1  UNL1        0.0031
     31 C         143.2813  140.5350  163.7746 C.ar    1  UNL1        0.0193
     32 C         143.0955  140.8812  162.3271 C.ar    1  UNL1        0.0858
@<TRIPOS>BOND
     1     3     4    1
     2     4     5   ar
     3     5     6   ar
     4     6    10    1
     5    10    11    1
     6    11    12    1
     7    12    13    1
     8    13    14    1
     9    14    15    1
    10     6     7   ar
    11     7     8    1
    12     7     9   ar
    13     9     1    1
    14     1    17    1
    15    17    18   ar
    16    18    19   ar
    17    19    20   ar
    18    20    21    1
    19    20    22   ar
    20    22    24    1
    21    24    25   ar
    22    25    26   ar
    23    26    27   ar
    24    27    28   ar
    25    28    29   ar
    26    29    30   ar
    27    30    31   ar
    28    31    32   ar
    29    22    23   ar
    30     9     4   ar
    31    23    17   ar
    32    15    10    1
    33    32    24   ar
    34    32    27   ar
    35    13    16    1
    36     1     2    1
@<TRIPOS>MOLECULE
*****
 32 36 0 0 0
SMALL
GASTEIGER

@<TRIPOS>ATOM
      1 N         140.5176  138.0060  164.5644 N.pl3   1  UNL1       -0.2806
      2 H         140.5770  137.0323  164.6971 H       1  UNL1        0.1551
      3 C         143.6532  138.8977  164.7122 C.3     1  UNL1        0.0553
      4 C         142.5638  139.3484  165.6396 C.ar    1  UNL1        0.0935
      5 N         142.7243  140.2881  166.7977 N.ar    1  UNL1       -0.1727
      6 N         141.3822  140.4589  167.4455 N.ar    1  UNL1       -0.2558
      7 C         140.3922  139.6248  166.6878 C.ar    1  UNL1        0.0704
      8 C         138.9290  139.4992  166.9926 C.3     1  UNL1        0.0531
      9 C         141.1224  138.9385  165.5716 C.ar    1  UNL1        0.0792
     10 C         141.0827  141.3137  168.6412 C.3     1  UNL1        0.1076
     11 C         141.1671  140.7302  170.0204 C.3     1  UNL1        0.0415
     12 C         140.8676  141.5851  171.2161 C.3     1  UNL1        0.0706
     13 N         140.4836  143.0234  171.0324 N.3     1  UNL1       -0.2974
     14 C         140.3992  143.6069  169.6531 C.3     1  UNL1        0.0706
     15 C         140.6987  142.7520  168.4575 C.3     1  UNL1        0.0415
     16 H         141.1682  143.5787  171.5456 H       1  UNL1        0.1232
     17 C         139.8223  138.5569  163.3548 C.ar    1  UNL1        0.2208
     18 N         138.6289  137.8471  162.7875 N.ar    1  UNL1       -0.2111
     19 C         137.9336  138.3980  161.5780 C.ar    1  UNL1        0.1147
     20 C         138.4317  139.6588  160.9358 C.ar    1  UNL1        0.0946
     21 CL        137.7364  140.2097  159.7262 Cl      1  UNL1       -0.0790
     22 C         139.6252  140.3686  161.5032 C.ar    1  UNL1        0.0992
     23 N         140.3204  139.8176  162.7126 N.ar    1  UNL1       -0.2126
     24 C         140.1233  141.6293  160.8609 C.ar    1  UNL1        0.0572
     25 C         140.9698  141.7146  159.6256 C.ar    1  UNL1        0.1235
     26 N         141.2320  143.1641  159.3425 N.ar    1  UNL1       -0.1634
     27 N         140.5476  143.9747  160.4030 N.ar    1  UNL1       -0.2281
     28 C         140.4598  145.4540  160.6353 C.ar    1  UNL1        0.1004
     29 C         139.6868  145.9847  161.8061 C.ar    1  UNL1        0.0207
     30 C         139.0015  145.0361  162.7445 C.ar    1  UNL1        0.0031
     31 C         139.0893  143.5568  162.5122 C.ar    1  UNL1        0.0193
     32 C         139.8624  143.0262  161.3414 C.ar    1  UNL1        0.0858
@<TRIPOS>BOND
     1     3     4    1
     2     4     5   ar
     3     5     6   ar
     4     6    10    1
     5    10    11    1
     6    11    12    1
     7    12    13    1
     8    13    14    1
     9    14    15    1
    10     6     7   ar
    11     7     8    1
    12     7     9   ar
    13     9     1    1
    14     1    17    1
    15    17    18   ar
    16    18    19   ar
    17    19    20   ar
    18    20    21    1
    19    20    22   ar
    20    22    24    1
    21    24    25   ar
    22    25    26   ar
    23    26    27   ar
    24    27    28   ar
    25    28    29   ar
    26    29    30   ar
    27    30    31   ar
    28    31    32   ar
    29    22    23   ar
    30     9     4   ar
    31    23    17   ar
    32    15    10    1
    33    32    24   ar
    34    32    27   ar
    35    13    16    1
    36     1     2    1
@<TRIPOS>MOLECULE
*****
 32 36 0 0 0
SMALL
GASTEIGER

@<TRIPOS>ATOM
      1 N         140.3297  138.2761  164.7757 N.pl3   1  UNL1       -0.2806
      2 H         140.8362  137.4320  164.7869 H       1  UNL1        0.1551
      3 C         137.7302  138.3690  166.7463 C.3     1  UNL1        0.0553
      4 C         139.0069  139.1334  166.9345 C.ar    1  UNL1        0.0935
      5 N         139.3130  140.0748  168.0615 N.ar    1  UNL1       -0.1727
      6 N         140.6971  140.6139  167.8522 N.ar    1  UNL1       -0.2558
      7 C         141.2464  140.0058  166.5959 C.ar    1  UNL1        0.0704
      8 C         142.6022  140.2667  166.0097 C.3     1  UNL1        0.0531
      9 C         140.2019  139.0908  166.0287 C.ar    1  UNL1        0.0792
     10 C         141.4072  141.5898  168.7429 C.3     1  UNL1        0.1076
     11 C         140.6681  142.7685  169.3036 C.3     1  UNL1        0.0415
     12 C         141.3782  143.7445  170.1944 C.3     1  UNL1        0.0706
     13 N         142.8274  143.5416  170.5243 N.3     1  UNL1       -0.2974
     14 C         143.5664  142.3629  169.9636 C.3     1  UNL1        0.0706
     15 C         142.8563  141.3870  169.0729 C.3     1  UNL1        0.0415
     16 H         142.8913  143.4732  171.5400 H       1  UNL1        0.1232
     17 C         139.6858  138.7476  163.5056 C.ar    1  UNL1        0.2208
     18 N         138.5406  137.9795  162.9153 N.ar    1  UNL1       -0.2111
     19 C         137.8967  138.4509  161.6452 C.ar    1  UNL1        0.1147
     20 C         138.3981  139.6904  160.9654 C.ar    1  UNL1        0.0946
     21 CL        137.7542  140.1619  159.6953 Cl      1  UNL1       -0.0790
     22 C         139.5434  140.4586  161.5557 C.ar    1  UNL1        0.0992
     23 N         140.1872  139.9871  162.8257 N.ar    1  UNL1       -0.2126
     24 C         140.0447  141.6982  160.8759 C.ar    1  UNL1        0.0572
     25 C         140.8495  141.7458  159.6109 C.ar    1  UNL1        0.1235
     26 N         141.1314  143.1848  159.2950 N.ar    1  UNL1       -0.1634
     27 N         140.5010  144.0265  160.3646 N.ar    1  UNL1       -0.2281
     28 C         140.4517  145.5108  160.5752 C.ar    1  UNL1        0.1004
     29 C         139.7308  146.0762  161.7628 C.ar    1  UNL1        0.0207
     30 C         139.0592  145.1574  162.7398 C.ar    1  UNL1        0.0031
     31 C         139.1084  143.6731  162.5293 C.ar    1  UNL1        0.0193
     32 C         139.8293  143.1076  161.3417 C.ar    1  UNL1        0.0858
@<TRIPOS>BOND
     1     3     4    1
     2     4     5   ar
     3     5     6   ar
     4     6    10    1
     5    10    11    1
     6    11    12    1
     7    12    13    1
     8    13    14    1
     9    14    15    1
    10     6     7   ar
    11     7     8    1
    12     7     9   ar
    13     9     1    1
    14     1    17    1
    15    17    18   ar
    16    18    19   ar
    17    19    20   ar
    18    20    21    1
    19    20    22   ar
    20    22    24    1
    21    24    25   ar
    22    25    26   ar
    23    26    27   ar
    24    27    28   ar
    25    28    29   ar
    26    29    30   ar
    27    30    31   ar
    28    31    32   ar
    29    22    23   ar
    30     9     4   ar
    31    23    17   ar
    32    15    10    1
    33    32    24   ar
    34    32    27   ar
    35    13    16    1
    36     1     2    1
@<TRIPOS>MOLECULE
*****
 32 36 0 0 0
SMALL
GASTEIGER

@<TRIPOS>ATOM
      1 N         143.9094  138.9590  162.6482 N.pl3   1  UNL1       -0.2806
      2 H         144.6199  138.2879  162.7663 H       1  UNL1        0.1551
      3 C         145.5648  141.6030  163.6064 C.3     1  UNL1        0.0553
      4 C         144.9268  141.4008  162.2640 C.ar    1  UNL1        0.0935
      5 N         144.9377  142.3784  161.1263 N.ar    1  UNL1       -0.1727
      6 N         144.1835  141.7672  159.9827 N.ar    1  UNL1       -0.2558
      7 C         143.7065  140.4119  160.4136 C.ar    1  UNL1        0.0704
      8 C         142.9100  139.4517  159.5809 C.3     1  UNL1        0.0531
      9 C         144.1659  140.1854  161.8235 C.ar    1  UNL1        0.0792
     10 C         143.9478  142.4002  158.6434 C.3     1  UNL1        0.1076
     11 C         142.9005  143.4630  158.4902 C.3     1  UNL1        0.0415
     12 C         142.6647  144.0961  157.1508 C.3     1  UNL1        0.0706
     13 N         143.4763  143.6661  155.9649 N.3     1  UNL1       -0.2974
     14 C         144.5235  142.6033  156.1181 C.3     1  UNL1        0.0706
     15 C         144.7593  141.9703  157.4575 C.3     1  UNL1        0.0415
     16 H         143.9507  144.4987  155.6153 H       1  UNL1        0.1232
     17 C         142.5704  138.7551  163.2928 C.ar    1  UNL1        0.2208
     18 N         142.3067  137.5178  164.0987 N.ar    1  UNL1       -0.2111
     19 C         140.9677  137.3140  164.7433 C.ar    1  UNL1        0.1147
     20 C         139.8925  138.3473  164.5820 C.ar    1  UNL1        0.0946
     21 CL        138.5535  138.1434  165.2266 Cl      1  UNL1       -0.0790
     22 C         140.1562  139.5847  163.7760 C.ar    1  UNL1        0.0992
     23 N         141.4952  139.7885  163.1314 N.ar    1  UNL1       -0.2126
     24 C         139.0810  140.6180  163.6147 C.ar    1  UNL1        0.0572
     25 C         137.8556  140.4893  162.7592 C.ar    1  UNL1        0.1235
     26 N         137.0597  141.7533  162.8963 N.ar    1  UNL1       -0.1634
     27 N         137.7932  142.6632  163.8365 N.ar    1  UNL1       -0.2281
     28 C         137.4849  144.0400  164.3457 C.ar    1  UNL1        0.1004
     29 C         138.4259  144.7152  165.2989 C.ar    1  UNL1        0.0207
     30 C         139.6752  144.0136  165.7429 C.ar    1  UNL1        0.0031
     31 C         139.9834  142.6368  165.2337 C.ar    1  UNL1        0.0193
     32 C         139.0424  141.9616  164.2805 C.ar    1  UNL1        0.0858
@<TRIPOS>BOND
     1     3     4    1
     2     4     5   ar
     3     5     6   ar
     4     6    10    1
     5    10    11    1
     6    11    12    1
     7    12    13    1
     8    13    14    1
     9    14    15    1
    10     6     7   ar
    11     7     8    1
    12     7     9   ar
    13     9     1    1
    14     1    17    1
    15    17    18   ar
    16    18    19   ar
    17    19    20   ar
    18    20    21    1
    19    20    22   ar
    20    22    24    1
    21    24    25   ar
    22    25    26   ar
    23    26    27   ar
    24    27    28   ar
    25    28    29   ar
    26    29    30   ar
    27    30    31   ar
    28    31    32   ar
    29    22    23   ar
    30     9     4   ar
    31    23    17   ar
    32    15    10    1
    33    32    24   ar
    34    32    27   ar
    35    13    16    1
    36     1     2    1
@<TRIPOS>MOLECULE
*****
 32 36 0 0 0
SMALL
GASTEIGER

@<TRIPOS>ATOM
      1 N         141.7550  137.2135  163.6077 N.pl3   1  UNL1       -0.2806
      2 H         141.7006  136.2349  163.7005 H       1  UNL1        0.1551
      3 C         138.7882  138.3323  164.3792 C.3     1  UNL1        0.0553
      4 C         140.0578  138.6114  165.1276 C.ar    1  UNL1        0.0935
      5 N         140.1867  139.4538  166.3621 N.ar    1  UNL1       -0.1727
      6 N         141.6301  139.4601  166.7704 N.ar    1  UNL1       -0.2558
      7 C         142.3933  138.6217  165.7883 C.ar    1  UNL1        0.0704
      8 C         143.8690  138.3547  165.8164 C.3     1  UNL1        0.0531
      9 C         141.4216  138.0971  164.7730 C.ar    1  UNL1        0.0792
     10 C         142.2087  140.1787  167.9531 C.3     1  UNL1        0.1076
     11 C         142.3066  139.4836  169.2787 C.3     1  UNL1        0.0415
     12 C         142.8852  140.2022  170.4615 C.3     1  UNL1        0.0706
     13 N         143.3658  141.6159  170.3185 N.3     1  UNL1       -0.2974
     14 C         143.2679  142.3110  168.9929 C.3     1  UNL1        0.0706
     15 C         142.6893  141.5923  167.8102 C.3     1  UNL1        0.0415
     16 H         144.3515  141.6197  170.5809 H       1  UNL1        0.1232
     17 C         142.1714  137.8208  162.3008 C.ar    1  UNL1        0.2208
     18 N         143.5760  138.3138  162.1167 N.ar    1  UNL1       -0.2111
     19 C         143.9924  138.9211  160.8098 C.ar    1  UNL1        0.1147
     20 C         143.0042  139.0354  159.6872 C.ar    1  UNL1        0.0946
     21 CL        143.4206  139.6426  158.3804 Cl      1  UNL1       -0.0790
     22 C         141.5995  138.5423  159.8714 C.ar    1  UNL1        0.0992
     23 N         141.1832  137.9351  161.1782 N.ar    1  UNL1       -0.2126
     24 C         140.6112  138.6566  158.7487 C.ar    1  UNL1        0.0572
     25 C         139.4238  139.5722  158.7093 C.ar    1  UNL1        0.1235
     26 N         138.7156  139.3568  157.4046 N.ar    1  UNL1       -0.1634
     27 N         139.4655  138.3081  156.6378 N.ar    1  UNL1       -0.2281
     28 C         139.2328  137.6914  155.2904 C.ar    1  UNL1        0.1004
     29 C         140.1718  136.6419  154.7738 C.ar    1  UNL1        0.0207
     30 C         141.3433  136.2091  155.6045 C.ar    1  UNL1        0.0031
     31 C         141.5760  136.8259  156.9519 C.ar    1  UNL1        0.0193
     32 C         140.6371  137.8754  157.4685 C.ar    1  UNL1        0.0858
@<TRIPOS>BOND
     1     3     4    1
     2     4     5   ar
     3     5     6   ar
     4     6    10    1
     5    10    11    1
     6    11    12    1
     7    12    13    1
     8    13    14    1
     9    14    15    1
    10     6     7   ar
    11     7     8    1
    12     7     9   ar
    13     9     1    1
    14     1    17    1
    15    17    18   ar
    16    18    19   ar
    17    19    20   ar
    18    20    21    1
    19    20    22   ar
    20    22    24    1
    21    24    25   ar
    22    25    26   ar
    23    26    27   ar
    24    27    28   ar
    25    28    29   ar
    26    29    30   ar
    27    30    31   ar
    28    31    32   ar
    29    22    23   ar
    30     9     4   ar
    31    23    17   ar
    32    15    10    1
    33    32    24   ar
    34    32    27   ar
    35    13    16    1
    36     1     2    1
@<TRIPOS>MOLECULE
*****
 32 36 0 0 0
SMALL
GASTEIGER

@<TRIPOS>ATOM
      1 N         143.7832  138.7199  162.3161 N.pl3   1  UNL1       -0.2806
      2 H         144.4928  138.0403  162.2555 H       1  UNL1        0.1551
      3 C         141.1680  137.1875  163.5252 C.3     1  UNL1        0.0553
      4 C         141.2770  137.8034  162.1618 C.ar    1  UNL1        0.0935
      5 N         140.2029  137.8231  161.1148 N.ar    1  UNL1       -0.1727
      6 N         140.7412  138.5397  159.9119 N.ar    1  UNL1       -0.2558
      7 C         142.1479  138.9628  160.2155 C.ar    1  UNL1        0.0704
      8 C         143.0628  139.7098  159.2910 C.3     1  UNL1        0.0531
      9 C         142.4791  138.5078  161.6060 C.ar    1  UNL1        0.0792
     10 C         140.0026  138.7892  158.6305 C.3     1  UNL1        0.1076
     11 C         140.1262  137.8198  157.4926 C.3     1  UNL1        0.0415
     12 C         139.3874  138.0693  156.2111 C.3     1  UNL1        0.0706
     13 N         138.5252  139.2884  156.0677 N.3     1  UNL1       -0.2974
     14 C         138.4016  140.2578  157.2057 C.3     1  UNL1        0.0706
     15 C         139.1403  140.0081  158.4871 C.3     1  UNL1        0.0415
     16 H         137.5829  138.9594  155.8575 H       1  UNL1        0.1232
     17 C         144.0061  139.9675  163.1184 C.ar    1  UNL1        0.2208
     18 N         145.3231  140.6816  163.0442 N.ar    1  UNL1       -0.2111
     19 C         145.5460  141.9292  163.8466 C.ar    1  UNL1        0.1147
     20 C         144.4520  142.4627  164.7232 C.ar    1  UNL1        0.0946
     21 CL        144.6749  143.7103  165.5256 Cl      1  UNL1       -0.0790
     22 C         143.1349  141.7485  164.7974 C.ar    1  UNL1        0.0992
     23 N         142.9120  140.5010  163.9951 N.ar    1  UNL1       -0.2126
     24 C         142.0408  142.2819  165.6741 C.ar    1  UNL1        0.0572
     25 C         140.7223  142.8239  165.2074 C.ar    1  UNL1        0.1235
     26 N         139.9399  143.2440  166.4162 N.ar    1  UNL1       -0.1634
     27 N         140.7748  142.9616  167.6300 N.ar    1  UNL1       -0.2281
     28 C         140.5204  143.1691  169.0936 C.ar    1  UNL1        0.1004
     29 C         141.5645  142.7820  170.0985 C.ar    1  UNL1        0.0207
     30 C         142.8630  142.1875  169.6398 C.ar    1  UNL1        0.0031
     31 C         143.1174  141.9800  168.1762 C.ar    1  UNL1        0.0193
     32 C         142.0733  142.3670  167.1713 C.ar    1  UNL1        0.0858
@<TRIPOS>BOND
     1     3     4    1
     2     4     5   ar
     3     5     6   ar
     4     6    10    1
     5    10    11    1
     6    11    12    1
     7    12    13    1
     8    13    14    1
     9    14    15    1
    10     6     7   ar
    11     7     8    1
    12     7     9   ar
    13     9     1    1
    14     1    17    1
    15    17    18   ar
    16    18    19   ar
    17    19    20   ar
    18    20    21    1
    19    20    22   ar
    20    22    24    1
    21    24    25   ar
    22    25    26   ar
    23    26    27   ar
    24    27    28   ar
    25    28    29   ar
    26    29    30   ar
    27    30    31   ar
    28    31    32   ar
    29    22    23   ar
    30     9     4   ar
    31    23    17   ar
    32    15    10    1
    33    32    24   ar
    34    32    27   ar
    35    13    16    1
    36     1     2    1
@<TRIPOS>MOLECULE
*****
 32 36 0 0 0
SMALL
GASTEIGER

@<TRIPOS>ATOM
      1 N         143.3785  143.9378  161.5528 N.pl3   1  UNL1       -0.2806
      2 H         144.0403  144.6579  161.4400 H       1  UNL1        0.1551
      3 C         140.8058  145.4493  162.8741 C.3     1  UNL1        0.0553
      4 C         140.8354  144.7607  161.5418 C.ar    1  UNL1        0.0935
      5 N         139.6876  144.6460  160.5829 N.ar    1  UNL1       -0.1727
      6 N         140.1608  143.8803  159.3829 N.ar    1  UNL1       -0.2558
      7 C         141.6010  143.5218  159.6002 C.ar    1  UNL1        0.0704
      8 C         142.4715  142.7540  158.6501 C.3     1  UNL1        0.0531
      9 C         142.0180  144.0659  160.9344 C.ar    1  UNL1        0.0792
     10 C         139.3382  143.5339  158.1774 C.3     1  UNL1        0.1076
     11 C         138.2813  142.4736  158.2700 C.3     1  UNL1        0.0415
     12 C         137.4586  142.1272  157.0644 C.3     1  UNL1        0.0706
     13 N         137.6930  142.8412  155.7663 N.3     1  UNL1       -0.2974
     14 C         138.7500  143.9016  155.6736 C.3     1  UNL1        0.0706
     15 C         139.5725  144.2479  156.8792 C.3     1  UNL1        0.0415
     16 H         136.8100  143.2824  155.5093 H       1  UNL1        0.1232
     17 C         143.7309  142.7125  162.3431 C.ar    1  UNL1        0.2208
     18 N         145.0754  142.6041  162.9991 N.ar    1  UNL1       -0.2111
     19 C         145.4278  141.3788  163.7893 C.ar    1  UNL1        0.1147
     20 C         144.4355  140.2619  163.9236 C.ar    1  UNL1        0.0946
     21 CL        144.7879  139.0367  164.7139 Cl      1  UNL1       -0.0790
     22 C         143.0909  140.3704  163.2676 C.ar    1  UNL1        0.0992
     23 N         142.7386  141.5956  162.4774 N.ar    1  UNL1       -0.2126
     24 C         142.0986  139.2535  163.4019 C.ar    1  UNL1        0.0572
     25 C         142.1083  137.9678  162.6293 C.ar    1  UNL1        0.1235
     26 N         140.9382  137.1460  163.0823 N.ar    1  UNL1       -0.1634
     27 N         140.2053  137.9237  164.1349 N.ar    1  UNL1       -0.2281
     28 C         138.9775  137.6141  164.9391 C.ar    1  UNL1        0.1004
     29 C         138.4669  138.6070  165.9407 C.ar    1  UNL1        0.0207
     30 C         139.1841  139.9095  166.1383 C.ar    1  UNL1        0.0031
     31 C         140.4119  140.2191  165.3341 C.ar    1  UNL1        0.0193
     32 C         140.9225  139.2262  164.3325 C.ar    1  UNL1        0.0858
@<TRIPOS>BOND
     1     3     4    1
     2     4     5   ar
     3     5     6   ar
     4     6    10    1
     5    10    11    1
     6    11    12    1
     7    12    13    1
     8    13    14    1
     9    14    15    1
    10     6     7   ar
    11     7     8    1
    12     7     9   ar
    13     9     1    1
    14     1    17    1
    15    17    18   ar
    16    18    19   ar
    17    19    20   ar
    18    20    21    1
    19    20    22   ar
    20    22    24    1
    21    24    25   ar
    22    25    26   ar
    23    26    27   ar
    24    27    28   ar
    25    28    29   ar
    26    29    30   ar
    27    30    31   ar
    28    31    32   ar
    29    22    23   ar
    30     9     4   ar
    31    23    17   ar
    32    15    10    1
    33    32    24   ar
    34    32    27   ar
    35    13    16    1
    36     1     2    1
@<TRIPOS>MOLECULE
*****
 32 36 0 0 0
SMALL
GASTEIGER

@<TRIPOS>ATOM
      1 N         141.5311  137.5593  163.5939 N.pl3   1  UNL1       -0.2806
      2 H         141.5693  136.5757  163.6073 H       1  UNL1        0.1551
      3 C         138.5934  138.4151  164.7282 C.3     1  UNL1        0.0553
      4 C         139.9110  138.7101  165.3815 C.ar    1  UNL1        0.0935
      5 N         140.1096  139.4503  166.6710 N.ar    1  UNL1       -0.1727
      6 N         141.5828  139.5144  166.9465 N.ar    1  UNL1       -0.2558
      7 C         142.2946  138.8139  165.8274 C.ar    1  UNL1        0.0704
      8 C         143.7789  138.6408  165.6981 C.3     1  UNL1        0.0531
      9 C         141.2614  138.3168  164.8601 C.ar    1  UNL1        0.0792
     10 C         142.2304  140.1649  168.1329 C.3     1  UNL1        0.1076
     11 C         142.7199  141.5796  168.0383 C.3     1  UNL1        0.0415
     12 C         143.3676  142.2301  169.2247 C.3     1  UNL1        0.0706
     13 N         143.5256  141.4658  170.5057 N.3     1  UNL1       -0.2974
     14 C         143.0360  140.0511  170.6003 C.3     1  UNL1        0.0706
     15 C         142.3884  139.4007  169.4139 C.3     1  UNL1        0.0415
     16 H         143.0362  141.9956  171.2269 H       1  UNL1        0.1232
     17 C         141.7426  138.3005  162.3071 C.ar    1  UNL1        0.2208
     18 N         142.6451  137.7309  161.2530 N.ar    1  UNL1       -0.2111
     19 C         142.8566  138.4721  159.9662 C.ar    1  UNL1        0.1147
     20 C         142.1656  139.7830  159.7335 C.ar    1  UNL1        0.0946
     21 CL        142.3771  140.5242  158.4467 Cl      1  UNL1       -0.0790
     22 C         141.2631  140.3526  160.7876 C.ar    1  UNL1        0.0992
     23 N         141.0516  139.6114  162.0743 N.ar    1  UNL1       -0.2126
     24 C         140.5721  141.6635  160.5548 C.ar    1  UNL1        0.0572
     25 C         139.5427  141.9425  159.5000 C.ar    1  UNL1        0.1235
     26 N         139.1236  143.3770  159.6293 N.ar    1  UNL1       -0.1634
     27 N         139.8940  143.9845  160.7640 N.ar    1  UNL1       -0.2281
     28 C         139.8960  145.3651  161.3503 C.ar    1  UNL1        0.1004
     29 C         140.7931  145.6868  162.5085 C.ar    1  UNL1        0.0207
     30 C         141.6883  144.6278  163.0805 C.ar    1  UNL1        0.0031
     31 C         141.6864  143.2472  162.4942 C.ar    1  UNL1        0.0193
     32 C         140.7892  142.9255  161.3360 C.ar    1  UNL1        0.0858
@<TRIPOS>BOND
     1     3     4    1
     2     4     5   ar
     3     5     6   ar
     4     6    10    1
     5    10    11    1
     6    11    12    1
     7    12    13    1
     8    13    14    1
     9    14    15    1
    10     6     7   ar
    11     7     8    1
    12     7     9   ar
    13     9     1    1
    14     1    17    1
    15    17    18   ar
    16    18    19   ar
    17    19    20   ar
    18    20    21    1
    19    20    22   ar
    20    22    24    1
    21    24    25   ar
    22    25    26   ar
    23    26    27   ar
    24    27    28   ar
    25    28    29   ar
    26    29    30   ar
    27    30    31   ar
    28    31    32   ar
    29    22    23   ar
    30     9     4   ar
    31    23    17   ar
    32    15    10    1
    33    32    24   ar
    34    32    27   ar
    35    13    16    1
    36     1     2    1
@<TRIPOS>MOLECULE
*****
 32 36 0 0 0
SMALL
GASTEIGER

@<TRIPOS>ATOM
      1 N         141.4162  137.6429  163.6191 N.pl3   1  UNL1       -0.2806
      2 H         141.1880  136.6859  163.5847 H       1  UNL1        0.1551
      3 C         138.5296  138.7420  164.6721 C.3     1  UNL1        0.0553
      4 C         139.8492  138.9317  165.3594 C.ar    1  UNL1        0.0935
      5 N         140.0738  139.6599  166.6514 N.ar    1  UNL1       -0.1727
      6 N         141.5395  139.6047  166.9660 N.ar    1  UNL1       -0.2558
      7 C         142.2208  138.8425  165.8684 C.ar    1  UNL1        0.0704
      8 C         143.6888  138.5479  165.7792 C.3     1  UNL1        0.0531
      9 C         141.1762  138.4265  164.8754 C.ar    1  UNL1        0.0792
     10 C         142.2067  140.2062  168.1672 C.3     1  UNL1        0.1076
     11 C         142.7381  141.6077  168.1068 C.3     1  UNL1        0.0415
     12 C         143.4054  142.2092  169.3081 C.3     1  UNL1        0.0706
     13 N         143.5412  141.4093  170.5697 N.3     1  UNL1       -0.2974
     14 C         143.0098  140.0079  170.6301 C.3     1  UNL1        0.0706
     15 C         142.3425  139.4064  169.4288 C.3     1  UNL1        0.0415
     16 H         143.0681  141.9355  171.3043 H       1  UNL1        0.1232
     17 C         142.0039  138.3175  162.4151 C.ar    1  UNL1        0.2208
     18 N         142.6368  137.4975  161.3303 N.ar    1  UNL1       -0.2111
     19 C         143.2245  138.1721  160.1263 C.ar    1  UNL1        0.1147
     20 C         143.1792  139.6667  160.0072 C.ar    1  UNL1        0.0946
     21 CL        143.7669  140.3412  158.8032 Cl      1  UNL1       -0.0790
     22 C         142.5462  140.4867  161.0921 C.ar    1  UNL1        0.0992
     23 N         141.9586  139.8121  162.2960 N.ar    1  UNL1       -0.2126
     24 C         142.5009  141.9813  160.9729 C.ar    1  UNL1        0.0572
     25 C         143.3492  142.9529  161.7386 C.ar    1  UNL1        0.1235
     26 N         142.9719  144.3387  161.3061 N.ar    1  UNL1       -0.1634
     27 N         141.8904  144.2236  160.2731 N.ar    1  UNL1       -0.2281
     28 C         141.1330  145.2572  159.4934 C.ar    1  UNL1        0.1004
     29 C         140.0846  144.8338  158.5078 C.ar    1  UNL1        0.0207
     30 C         139.7935  143.3768  158.3019 C.ar    1  UNL1        0.0031
     31 C         140.5508  142.3432  159.0816 C.ar    1  UNL1        0.0193
     32 C         141.5993  142.7666  160.0672 C.ar    1  UNL1        0.0858
@<TRIPOS>BOND
     1     3     4    1
     2     4     5   ar
     3     5     6   ar
     4     6    10    1
     5    10    11    1
     6    11    12    1
     7    12    13    1
     8    13    14    1
     9    14    15    1
    10     6     7   ar
    11     7     8    1
    12     7     9   ar
    13     9     1    1
    14     1    17    1
    15    17    18   ar
    16    18    19   ar
    17    19    20   ar
    18    20    21    1
    19    20    22   ar
    20    22    24    1
    21    24    25   ar
    22    25    26   ar
    23    26    27   ar
    24    27    28   ar
    25    28    29   ar
    26    29    30   ar
    27    30    31   ar
    28    31    32   ar
    29    22    23   ar
    30     9     4   ar
    31    23    17   ar
    32    15    10    1
    33    32    24   ar
    34    32    27   ar
    35    13    16    1
    36     1     2    1
