@<TRIPOS>MOLECULE
*****
 31 35 0 0 0
SMALL
GASTEIGER

@<TRIPOS>ATOM
      1 O         145.0204  139.4682  164.0629 O.2     1  UNL1       -0.2745
      2 C         143.7290  138.9794  164.6488 C.2     1  UNL1        0.2301
      3 N         142.5351  138.7726  163.7646 N.am    1  UNL1       -0.2764
      4 C         142.6325  139.0545  162.2945 C.3     1  UNL1        0.1107
      5 C         141.4386  138.8477  161.4104 C.3     1  UNL1        0.0939
      6 N         140.1471  138.3590  161.9962 N.3     1  UNL1       -0.2695
      7 C         140.0496  138.0771  163.4663 C.3     1  UNL1        0.0939
      8 C         141.2436  138.2839  164.3504 C.3     1  UNL1        0.1107
      9 C         143.6314  138.6975  166.1188 C.3     1  UNL1        0.1116
     10 C         142.8602  139.6247  167.0106 C.ar    1  UNL1       -0.0130
     11 C         142.5415  141.0161  166.5497 C.ar    1  UNL1       -0.0022
     12 C         141.7702  141.9435  167.4415 C.ar    1  UNL1        0.0190
     13 C         141.3177  141.4794  168.7942 C.ar    1  UNL1        0.0862
     14 C         141.6364  140.0880  169.2551 C.ar    1  UNL1        0.0190
     15 C         142.4076  139.1607  168.3633 C.ar    1  UNL1       -0.0022
     16 N         140.5464  142.4066  169.6861 N.ar    1  UNL1       -0.1886
     17 C         140.6068  143.9052  169.6631 C.ar    1  UNL1        0.2258
     18 N         139.6771  144.4228  170.7203 N.ar    1  UNL1       -0.1045
     19 N         139.0421  143.2441  171.3967 N.ar    1  UNL1       -0.0222
     20 N         139.5794  141.9980  170.7574 N.ar    1  UNL1       -0.0385
     21 C         138.9532  138.1522  161.1120 C.3     1  UNL1        0.0769
     22 C         137.8818  139.1997  161.0414 C.3     1  UNL1        0.0437
     23 C         138.0867  140.5282  161.7071 C.ar    1  UNL1       -0.0210
     24 C         137.5469  140.7673  163.0860 C.ar    1  UNL1       -0.0045
     25 C         137.7518  142.0957  163.7517 C.ar    1  UNL1       -0.0024
     26 C         138.4965  143.1851  163.0385 C.ar    1  UNL1        0.0056
     27 C         139.0363  142.9461  161.6596 C.ar    1  UNL1        0.0054
     28 C         138.8314  141.6176  160.9938 C.ar    1  UNL1       -0.0063
     29 C         139.7245  144.1998  161.2073 C.3     1  UNL1        0.1688
     30 O         139.6100  145.2137  162.3068 O.3     1  UNL1       -0.3443
     31 C         138.8510  144.5867  163.4385 C.3     1  UNL1        0.1688
@<TRIPOS>BOND
     1     1     2    2
     2     2     9    1
     3     9    10    1
     4    10    11   ar
     5    11    12   ar
     6    12    13   ar
     7    13    16    1
     8    16    17   ar
     9    17    18   ar
    10    18    19   ar
    11    19    20   ar
    12    13    14   ar
    13    14    15   ar
    14     2     3   am
    15     3     4    1
    16     4     5    1
    17     5     6    1
    18     6    21    1
    19    21    22    1
    20    22    23    1
    21    23    24   ar
    22    24    25   ar
    23    25    26   ar
    24    26    27   ar
    25    27    28   ar
    26    27    29    1
    27    29    30    1
    28    30    31    1
    29     6     7    1
    30     7     8    1
    31    15    10   ar
    32     8     3    1
    33    20    16   ar
    34    28    23   ar
    35    31    26    1
@<TRIPOS>MOLECULE
*****
 31 35 0 0 0
SMALL
GASTEIGER

@<TRIPOS>ATOM
      1 O         140.9904  136.8712  163.2199 O.2     1  UNL1       -0.2745
      2 C         141.8343  138.0083  163.7145 C.2     1  UNL1        0.2301
      3 N         142.1358  139.1669  162.8108 N.am    1  UNL1       -0.2764
      4 C         141.5933  139.1885  161.4124 C.3     1  UNL1        0.1107
      5 C         141.8949  140.3471  160.5088 C.3     1  UNL1        0.0939
      6 N         142.7388  141.4842  161.0034 N.3     1  UNL1       -0.2695
      7 C         143.2814  141.4627  162.4016 C.3     1  UNL1        0.0939
      8 C         142.9798  140.3040  163.3053 C.3     1  UNL1        0.1107
      9 C         142.3769  137.9868  165.1128 C.3     1  UNL1        0.1116
     10 C         141.8588  138.9566  166.1331 C.ar    1  UNL1       -0.0130
     11 C         142.7634  139.4555  167.2207 C.ar    1  UNL1       -0.0022
     12 C         142.2454  140.4253  168.2412 C.ar    1  UNL1        0.0190
     13 C         140.8228  140.8961  168.1740 C.ar    1  UNL1        0.0862
     14 C         139.9182  140.3971  167.0864 C.ar    1  UNL1        0.0190
     15 C         140.4362  139.4274  166.0660 C.ar    1  UNL1       -0.0022
     16 N         140.3047  141.8658  169.1944 N.ar    1  UNL1       -0.1886
     17 C         140.6592  143.3203  169.2882 C.ar    1  UNL1        0.2258
     18 N         139.9147  143.9047  170.4519 N.ar    1  UNL1       -0.1045
     19 N         139.1000  142.8114  171.0773 N.ar    1  UNL1       -0.0222
     20 N         139.3411  141.5513  170.3001 N.ar    1  UNL1       -0.0385
     21 C         143.0403  142.6428  160.0996 C.3     1  UNL1        0.0769
     22 C         142.2596  143.9172  160.2281 C.3     1  UNL1        0.0437
     23 C         141.4641  144.1873  161.4709 C.ar    1  UNL1       -0.0210
     24 C         142.1209  144.8280  162.6574 C.ar    1  UNL1       -0.0045
     25 C         141.3254  145.0981  163.9000 C.ar    1  UNL1       -0.0024
     26 C         139.8730  144.7275  163.9561 C.ar    1  UNL1        0.0056
     27 C         139.2161  144.0868  162.7695 C.ar    1  UNL1        0.0054
     28 C         140.0116  143.8167  161.5268 C.ar    1  UNL1       -0.0063
     29 C         137.7788  143.8336  163.1159 C.3     1  UNL1        0.1688
     30 O         137.5473  144.3179  164.5166 O.3     1  UNL1       -0.3443
     31 C         138.8416  144.8703  165.0358 C.3     1  UNL1        0.1688
@<TRIPOS>BOND
     1     1     2    2
     2     2     9    1
     3     9    10    1
     4    10    11   ar
     5    11    12   ar
     6    12    13   ar
     7    13    16    1
     8    16    17   ar
     9    17    18   ar
    10    18    19   ar
    11    19    20   ar
    12    13    14   ar
    13    14    15   ar
    14     2     3   am
    15     3     4    1
    16     4     5    1
    17     5     6    1
    18     6    21    1
    19    21    22    1
    20    22    23    1
    21    23    24   ar
    22    24    25   ar
    23    25    26   ar
    24    26    27   ar
    25    27    28   ar
    26    27    29    1
    27    29    30    1
    28    30    31    1
    29     6     7    1
    30     7     8    1
    31    15    10   ar
    32     8     3    1
    33    20    16   ar
    34    28    23   ar
    35    31    26    1
@<TRIPOS>MOLECULE
*****
 31 35 0 0 0
SMALL
GASTEIGER

@<TRIPOS>ATOM
      1 O         140.7846  137.0238  162.8811 O.2     1  UNL1       -0.2745
      2 C         139.6793  138.0027  163.1454 C.2     1  UNL1        0.2301
      3 N         139.4280  139.1273  162.1851 N.am    1  UNL1       -0.2764
      4 C         140.2820  139.2731  160.9605 C.3     1  UNL1        0.1107
      5 C         140.0306  140.3977  160.0004 C.3     1  UNL1        0.0939
      6 N         138.9253  141.3766  160.2646 N.3     1  UNL1       -0.2695
      7 C         138.0712  141.2310  161.4891 C.3     1  UNL1        0.0939
      8 C         138.3226  140.1063  162.4494 C.3     1  UNL1        0.1107
      9 C         138.8252  137.8571  164.3699 C.3     1  UNL1        0.1116
     10 C         139.1766  138.6038  165.6224 C.ar    1  UNL1       -0.0130
     11 C         140.5492  139.1855  165.7886 C.ar    1  UNL1       -0.0022
     12 C         140.9007  139.9323  167.0412 C.ar    1  UNL1        0.0190
     13 C         139.8797  140.0973  168.1275 C.ar    1  UNL1        0.0862
     14 C         138.5070  139.5156  167.9612 C.ar    1  UNL1        0.0190
     15 C         138.1555  138.7689  166.7087 C.ar    1  UNL1       -0.0022
     16 N         140.2311  140.8441  169.3800 N.ar    1  UNL1       -0.1886
     17 C         140.9525  142.1573  169.4506 C.ar    1  UNL1        0.2258
     18 N         141.0900  142.5334  170.8961 N.ar    1  UNL1       -0.1045
     19 N         140.4536  141.4527  171.7190 N.ar    1  UNL1       -0.0222
     20 N         139.9227  140.4086  170.7819 N.ar    1  UNL1       -0.0385
     21 C         138.6740  142.5012  159.3044 C.3     1  UNL1        0.0769
     22 C         139.6380  143.6475  159.2230 C.3     1  UNL1        0.0437
     23 C         140.4269  144.0515  160.4333 C.ar    1  UNL1       -0.0210
     24 C         139.7948  144.9102  161.4881 C.ar    1  UNL1       -0.0045
     25 C         140.5836  145.3142  162.6984 C.ar    1  UNL1       -0.0024
     26 C         142.0045  144.8593  162.8536 C.ar    1  UNL1        0.0056
     27 C         142.6366  144.0005  161.7987 C.ar    1  UNL1        0.0054
     28 C         141.8479  143.5966  160.5885 C.ar    1  UNL1       -0.0063
     29 C         144.0453  143.7072  162.2224 C.3     1  UNL1        0.1688
     30 O         144.2838  144.3847  163.5393 O.3     1  UNL1       -0.3443
     31 C         143.0225  145.0968  163.9294 C.3     1  UNL1        0.1688
@<TRIPOS>BOND
     1     1     2    2
     2     2     9    1
     3     9    10    1
     4    10    11   ar
     5    11    12   ar
     6    12    13   ar
     7    13    16    1
     8    16    17   ar
     9    17    18   ar
    10    18    19   ar
    11    19    20   ar
    12    13    14   ar
    13    14    15   ar
    14     2     3   am
    15     3     4    1
    16     4     5    1
    17     5     6    1
    18     6    21    1
    19    21    22    1
    20    22    23    1
    21    23    24   ar
    22    24    25   ar
    23    25    26   ar
    24    26    27   ar
    25    27    28   ar
    26    27    29    1
    27    29    30    1
    28    30    31    1
    29     6     7    1
    30     7     8    1
    31    15    10   ar
    32     8     3    1
    33    20    16   ar
    34    28    23   ar
    35    31    26    1
@<TRIPOS>MOLECULE
*****
 31 35 0 0 0
SMALL
GASTEIGER

@<TRIPOS>ATOM
      1 O         139.0960  137.5688  163.0642 O.2     1  UNL1       -0.2745
      2 C         140.5206  137.9431  163.3479 C.2     1  UNL1        0.2301
      3 N         141.3709  138.5348  162.2631 N.am    1  UNL1       -0.2764
      4 C         140.7967  138.7522  160.8944 C.3     1  UNL1        0.1107
      5 C         141.6470  139.3439  159.8097 C.3     1  UNL1        0.0939
      6 N         143.0716  139.7182  160.0934 N.3     1  UNL1       -0.2695
      7 C         143.6458  139.5009  161.4620 C.3     1  UNL1        0.0939
      8 C         142.7954  138.9091  162.5468 C.3     1  UNL1        0.1107
      9 C         141.0948  137.7258  164.7165 C.3     1  UNL1        0.1116
     10 C         140.8718  138.7452  165.7939 C.ar    1  UNL1       -0.0130
     11 C         142.0448  139.3773  166.4827 C.ar    1  UNL1       -0.0022
     12 C         141.8218  140.3968  167.5603 C.ar    1  UNL1        0.0190
     13 C         140.4258  140.7842  167.9489 C.ar    1  UNL1        0.0862
     14 C         139.2528  140.1521  167.2600 C.ar    1  UNL1        0.0190
     15 C         139.4758  139.1326  166.1825 C.ar    1  UNL1       -0.0022
     16 N         140.2027  141.8037  169.0263 N.ar    1  UNL1       -0.1886
     17 C         140.5495  143.2609  168.9468 C.ar    1  UNL1        0.2258
     18 N         140.1548  143.9027  170.2438 N.ar    1  UNL1       -0.1045
     19 N         139.5640  142.8421  171.1250 N.ar    1  UNL1       -0.0222
     20 N         139.5937  141.5449  170.3724 N.ar    1  UNL1       -0.0385
     21 C         143.9218  140.3099  159.0086 C.3     1  UNL1        0.0769
     22 C         144.1983  141.7841  158.9923 C.3     1  UNL1        0.0437
     23 C         143.8382  142.6279  160.1791 C.ar    1  UNL1       -0.0210
     24 C         144.8332  142.8339  161.2825 C.ar    1  UNL1       -0.0045
     25 C         144.4731  143.6776  162.4693 C.ar    1  UNL1       -0.0024
     26 C         143.1180  144.3153  162.5527 C.ar    1  UNL1        0.0056
     27 C         142.1230  144.1094  161.4492 C.ar    1  UNL1        0.0054
     28 C         142.4830  143.2657  160.2625 C.ar    1  UNL1       -0.0063
     29 C         140.8737  144.8592  161.8057 C.3     1  UNL1        0.1688
     30 O         141.0966  145.5286  163.1294 O.3     1  UNL1       -0.3443
     31 C         142.4837  145.1925  163.5911 C.3     1  UNL1        0.1688
@<TRIPOS>BOND
     1     1     2    2
     2     2     9    1
     3     9    10    1
     4    10    11   ar
     5    11    12   ar
     6    12    13   ar
     7    13    16    1
     8    16    17   ar
     9    17    18   ar
    10    18    19   ar
    11    19    20   ar
    12    13    14   ar
    13    14    15   ar
    14     2     3   am
    15     3     4    1
    16     4     5    1
    17     5     6    1
    18     6    21    1
    19    21    22    1
    20    22    23    1
    21    23    24   ar
    22    24    25   ar
    23    25    26   ar
    24    26    27   ar
    25    27    28   ar
    26    27    29    1
    27    29    30    1
    28    30    31    1
    29     6     7    1
    30     7     8    1
    31    15    10   ar
    32     8     3    1
    33    20    16   ar
    34    28    23   ar
    35    31    26    1
@<TRIPOS>MOLECULE
*****
 31 35 0 0 0
SMALL
GASTEIGER

@<TRIPOS>ATOM
      1 O         136.9711  141.8059  163.0566 O.2     1  UNL1       -0.2745
      2 C         137.8900  140.6683  163.3906 C.2     1  UNL1        0.2301
      3 N         138.7641  140.0732  162.3268 N.am    1  UNL1       -0.2764
      4 C         138.7193  140.6155  160.9290 C.3     1  UNL1        0.1107
      5 C         139.5935  140.0202  159.8653 C.3     1  UNL1        0.0939
      6 N         140.5124  138.8827  160.1993 N.3     1  UNL1       -0.2695
      7 C         140.5572  138.3403  161.5971 C.3     1  UNL1        0.0939
      8 C         139.6830  138.9356  162.6608 C.3     1  UNL1        0.1107
      9 C         137.9348  140.1260  164.7884 C.3     1  UNL1        0.1116
     10 C         138.9126  140.6853  165.7788 C.ar    1  UNL1       -0.0130
     11 C         139.5045  142.0464  165.5616 C.ar    1  UNL1       -0.0022
     12 C         140.4824  142.6058  166.5521 C.ar    1  UNL1        0.0190
     13 C         140.8683  141.8041  167.7597 C.ar    1  UNL1        0.0862
     14 C         140.2764  140.4430  167.9768 C.ar    1  UNL1        0.0190
     15 C         139.2985  139.8836  166.9864 C.ar    1  UNL1       -0.0022
     16 N         141.8462  142.3634  168.7501 N.ar    1  UNL1       -0.1886
     17 C         141.5093  143.2216  169.9333 C.ar    1  UNL1        0.2258
     18 N         142.7876  143.5513  170.6456 N.ar    1  UNL1       -0.1045
     19 N         143.9145  142.8969  169.9026 N.ar    1  UNL1       -0.0222
     20 N         143.3325  142.1627  168.7311 N.ar    1  UNL1       -0.0385
     21 C         141.3865  138.2875  159.1355 C.3     1  UNL1        0.0769
     22 C         142.8751  138.4583  159.2055 C.3     1  UNL1        0.0437
     23 C         143.4976  139.1330  160.3919 C.ar    1  UNL1       -0.0210
     24 C         143.9208  138.3210  161.5799 C.ar    1  UNL1       -0.0045
     25 C         144.5433  138.9956  162.7662 C.ar    1  UNL1       -0.0024
     26 C         144.7426  140.4823  162.7645 C.ar    1  UNL1        0.0056
     27 C         144.3194  141.2944  161.5765 C.ar    1  UNL1        0.0054
     28 C         143.6969  140.6198  160.3902 C.ar    1  UNL1       -0.0063
     29 C         144.6398  142.7321  161.8598 C.3     1  UNL1        0.1688
     30 O         145.2610  142.8086  163.2229 O.3     1  UNL1       -0.3443
     31 C         145.3246  141.4182  163.7821 C.3     1  UNL1        0.1688
@<TRIPOS>BOND
     1     1     2    2
     2     2     9    1
     3     9    10    1
     4    10    11   ar
     5    11    12   ar
     6    12    13   ar
     7    13    16    1
     8    16    17   ar
     9    17    18   ar
    10    18    19   ar
    11    19    20   ar
    12    13    14   ar
    13    14    15   ar
    14     2     3   am
    15     3     4    1
    16     4     5    1
    17     5     6    1
    18     6    21    1
    19    21    22    1
    20    22    23    1
    21    23    24   ar
    22    24    25   ar
    23    25    26   ar
    24    26    27   ar
    25    27    28   ar
    26    27    29    1
    27    29    30    1
    28    30    31    1
    29     6     7    1
    30     7     8    1
    31    15    10   ar
    32     8     3    1
    33    20    16   ar
    34    28    23   ar
    35    31    26    1
@<TRIPOS>MOLECULE
*****
 31 35 0 0 0
SMALL
GASTEIGER

@<TRIPOS>ATOM
      1 O         141.2342  136.8864  163.8782 O.2     1  UNL1       -0.2745
      2 C         140.2723  138.0002  163.5878 C.2     1  UNL1        0.2301
      3 N         140.3974  138.7867  162.3167 N.am    1  UNL1       -0.2764
      4 C         141.4842  138.4595  161.3359 C.3     1  UNL1        0.1107
      5 C         141.6092  139.2461  160.0649 C.3     1  UNL1        0.0939
      6 N         140.6474  140.3599  159.7744 N.3     1  UNL1       -0.2695
      7 C         139.5605  140.6872  160.7551 C.3     1  UNL1        0.0939
      8 C         139.4356  139.9005  162.0262 C.3     1  UNL1        0.1107
      9 C         139.1855  138.3275  164.5684 C.3     1  UNL1        0.1116
     10 C         139.5219  139.0131  165.8594 C.ar    1  UNL1       -0.0130
     11 C         138.4809  139.1465  166.9311 C.ar    1  UNL1       -0.0022
     12 C         138.8172  139.8321  168.2222 C.ar    1  UNL1        0.0190
     13 C         140.1945  140.3843  168.4416 C.ar    1  UNL1        0.0862
     14 C         141.2354  140.2509  167.3698 C.ar    1  UNL1        0.0190
     15 C         140.8992  139.5653  166.0788 C.ar    1  UNL1       -0.0022
     16 N         140.5308  141.0700  169.7326 N.ar    1  UNL1       -0.1886
     17 C         141.9111  141.3402  170.2539 C.ar    1  UNL1        0.2258
     18 N         141.7792  142.0430  171.5724 N.ar    1  UNL1       -0.1045
     19 N         140.3174  142.2071  171.8662 N.ar    1  UNL1       -0.0222
     20 N         139.5459  141.6057  170.7290 N.ar    1  UNL1       -0.0385
     21 C         140.7724  141.1464  158.5033 C.3     1  UNL1        0.0769
     22 C         141.5415  142.4341  158.4907 C.3     1  UNL1        0.0437
     23 C         142.0800  142.9987  159.7720 C.ar    1  UNL1       -0.0210
     24 C         143.4656  142.6442  160.2239 C.ar    1  UNL1       -0.0045
     25 C         144.0040  143.2088  161.5051 C.ar    1  UNL1       -0.0024
     26 C         143.1568  144.1278  162.3343 C.ar    1  UNL1        0.0056
     27 C         141.7711  144.4823  161.8823 C.ar    1  UNL1        0.0054
     28 C         141.2327  143.9178  160.6012 C.ar    1  UNL1       -0.0063
     29 C         141.1733  145.4065  162.9014 C.3     1  UNL1        0.1688
     30 O         142.1896  145.6231  163.9832 O.3     1  UNL1       -0.3443
     31 C         143.4154  144.8329  163.6327 C.3     1  UNL1        0.1688
@<TRIPOS>BOND
     1     1     2    2
     2     2     9    1
     3     9    10    1
     4    10    11   ar
     5    11    12   ar
     6    12    13   ar
     7    13    16    1
     8    16    17   ar
     9    17    18   ar
    10    18    19   ar
    11    19    20   ar
    12    13    14   ar
    13    14    15   ar
    14     2     3   am
    15     3     4    1
    16     4     5    1
    17     5     6    1
    18     6    21    1
    19    21    22    1
    20    22    23    1
    21    23    24   ar
    22    24    25   ar
    23    25    26   ar
    24    26    27   ar
    25    27    28   ar
    26    27    29    1
    27    29    30    1
    28    30    31    1
    29     6     7    1
    30     7     8    1
    31    15    10   ar
    32     8     3    1
    33    20    16   ar
    34    28    23   ar
    35    31    26    1
@<TRIPOS>MOLECULE
*****
 31 35 0 0 0
SMALL
GASTEIGER

@<TRIPOS>ATOM
      1 O         136.8951  141.4727  162.8067 O.2     1  UNL1       -0.2745
      2 C         138.0657  140.5522  162.9866 C.2     1  UNL1        0.2301
      3 N         139.2230  140.6157  162.0344 N.am    1  UNL1       -0.2764
      4 C         139.2098  141.5996  160.9023 C.3     1  UNL1        0.1107
      5 C         140.3671  141.6630  159.9502 C.3     1  UNL1        0.0939
      6 N         141.5377  140.7425  160.1301 N.3     1  UNL1       -0.2695
      7 C         141.5509  139.7585  161.2622 C.3     1  UNL1        0.0939
      8 C         140.3935  139.6951  162.2144 C.3     1  UNL1        0.1107
      9 C         138.0789  139.5682  164.1187 C.3     1  UNL1        0.1116
     10 C         138.6227  139.9721  165.4570 C.ar    1  UNL1       -0.0130
     11 C         138.3456  139.1272  166.6650 C.ar    1  UNL1       -0.0022
     12 C         138.8894  139.5311  168.0035 C.ar    1  UNL1        0.0190
     13 C         139.7103  140.7797  168.1338 C.ar    1  UNL1        0.0862
     14 C         139.9873  141.6246  166.9257 C.ar    1  UNL1        0.0190
     15 C         139.4436  141.2208  165.5873 C.ar    1  UNL1       -0.0022
     16 N         140.2540  141.1836  169.4721 N.ar    1  UNL1       -0.1886
     17 C         140.3392  140.3109  170.6891 C.ar    1  UNL1        0.2258
     18 N         140.9459  141.1191  171.7975 N.ar    1  UNL1       -0.1045
     19 N         141.2358  142.4914  171.2656 N.ar    1  UNL1       -0.0222
     20 N         140.8081  142.5312  169.8284 N.ar    1  UNL1       -0.0385
     21 C         142.6950  140.8059  159.1780 C.3     1  UNL1        0.0769
     22 C         144.0494  141.2219  159.6704 C.3     1  UNL1        0.0437
     23 C         144.2126  141.7398  161.0688 C.ar    1  UNL1       -0.0210
     24 C         144.7486  140.8412  162.1435 C.ar    1  UNL1       -0.0045
     25 C         144.9118  141.3590  163.5418 C.ar    1  UNL1       -0.0024
     26 C         144.5389  142.7755  163.8653 C.ar    1  UNL1        0.0056
     27 C         144.0029  143.6741  162.7906 C.ar    1  UNL1        0.0054
     28 C         143.8397  143.1563  161.3923 C.ar    1  UNL1       -0.0063
     29 C         143.7221  145.0139  163.4038 C.3     1  UNL1        0.1688
     30 O         144.0846  144.9433  164.8577 O.3     1  UNL1       -0.3443
     31 C         144.5894  143.5599  165.1429 C.3     1  UNL1        0.1688
@<TRIPOS>BOND
     1     1     2    2
     2     2     9    1
     3     9    10    1
     4    10    11   ar
     5    11    12   ar
     6    12    13   ar
     7    13    16    1
     8    16    17   ar
     9    17    18   ar
    10    18    19   ar
    11    19    20   ar
    12    13    14   ar
    13    14    15   ar
    14     2     3   am
    15     3     4    1
    16     4     5    1
    17     5     6    1
    18     6    21    1
    19    21    22    1
    20    22    23    1
    21    23    24   ar
    22    24    25   ar
    23    25    26   ar
    24    26    27   ar
    25    27    28   ar
    26    27    29    1
    27    29    30    1
    28    30    31    1
    29     6     7    1
    30     7     8    1
    31    15    10   ar
    32     8     3    1
    33    20    16   ar
    34    28    23   ar
    35    31    26    1
@<TRIPOS>MOLECULE
*****
 31 35 0 0 0
SMALL
GASTEIGER

@<TRIPOS>ATOM
      1 O         138.3544  145.2280  162.4554 O.2     1  UNL1       -0.2745
      2 C         138.4237  143.7298  162.4800 C.2     1  UNL1        0.2301
      3 N         139.1744  142.9961  161.4085 N.am    1  UNL1       -0.2764
      4 C         139.8558  143.7605  160.3124 C.3     1  UNL1        0.1107
      5 C         140.6064  143.0267  159.2409 C.3     1  UNL1        0.0939
      6 N         140.6758  141.5286  159.2655 N.3     1  UNL1       -0.2695
      7 C         139.9945  140.7641  160.3615 C.3     1  UNL1        0.0939
      8 C         139.2438  141.4979  161.4331 C.3     1  UNL1        0.1107
      9 C         137.7424  142.9653  163.5761 C.3     1  UNL1        0.1116
     10 C         138.5514  142.3706  164.6904 C.ar    1  UNL1       -0.0130
     11 C         139.5812  143.2021  165.3960 C.ar    1  UNL1       -0.0022
     12 C         140.3903  142.6074  166.5105 C.ar    1  UNL1        0.0190
     13 C         140.1695  141.1811  166.9191 C.ar    1  UNL1        0.0862
     14 C         139.1397  140.3496  166.2134 C.ar    1  UNL1        0.0190
     15 C         138.3306  140.9443  165.0991 C.ar    1  UNL1       -0.0022
     16 N         140.9785  140.5864  168.0335 N.ar    1  UNL1       -0.1886
     17 C         142.4643  140.7027  168.2037 C.ar    1  UNL1        0.2258
     18 N         142.8477  139.9590  169.4487 N.ar    1  UNL1       -0.1045
     19 N         141.5989  139.3831  170.0479 N.ar    1  UNL1       -0.0222
     20 N         140.4437  139.7709  169.1732 N.ar    1  UNL1       -0.0385
     21 C         141.4265  140.7949  158.1940 C.3     1  UNL1        0.0769
     22 C         142.8468  140.3730  158.4279 C.3     1  UNL1        0.0437
     23 C         143.5585  140.7962  159.6788 C.ar    1  UNL1       -0.0210
     24 C         144.1838  142.1570  159.7621 C.ar    1  UNL1       -0.0045
     25 C         144.8955  142.5801  161.0129 C.ar    1  UNL1       -0.0024
     26 C         144.9818  141.6423  162.1804 C.ar    1  UNL1        0.0056
     27 C         144.3565  140.2814  162.0971 C.ar    1  UNL1        0.0054
     28 C         143.6448  139.8583  160.8464 C.ar    1  UNL1       -0.0063
     29 C         144.6014  139.5783  163.3993 C.3     1  UNL1        0.1688
     30 O         145.3781  140.5046  164.2873 O.3     1  UNL1       -0.3443
     31 C         145.6133  141.7803  163.5340 C.3     1  UNL1        0.1688
@<TRIPOS>BOND
     1     1     2    2
     2     2     9    1
     3     9    10    1
     4    10    11   ar
     5    11    12   ar
     6    12    13   ar
     7    13    16    1
     8    16    17   ar
     9    17    18   ar
    10    18    19   ar
    11    19    20   ar
    12    13    14   ar
    13    14    15   ar
    14     2     3   am
    15     3     4    1
    16     4     5    1
    17     5     6    1
    18     6    21    1
    19    21    22    1
    20    22    23    1
    21    23    24   ar
    22    24    25   ar
    23    25    26   ar
    24    26    27   ar
    25    27    28   ar
    26    27    29    1
    27    29    30    1
    28    30    31    1
    29     6     7    1
    30     7     8    1
    31    15    10   ar
    32     8     3    1
    33    20    16   ar
    34    28    23   ar
    35    31    26    1
@<TRIPOS>MOLECULE
*****
 31 35 0 0 0
SMALL
GASTEIGER

@<TRIPOS>ATOM
      1 O         138.0489  144.8797  162.7305 O.2     1  UNL1       -0.2745
      2 C         139.4272  144.3088  162.5739 C.2     1  UNL1        0.2301
      3 N         139.6990  143.2864  161.5105 N.am    1  UNL1       -0.2764
      4 C         138.5927  142.8349  160.6037 C.3     1  UNL1        0.1107
      5 C         138.8647  141.8125  159.5404 C.3     1  UNL1        0.0939
      6 N         140.2429  141.2416  159.3838 N.3     1  UNL1       -0.2695
      7 C         141.3493  141.6931  160.2905 C.3     1  UNL1        0.0939
      8 C         141.0773  142.7156  161.3538 C.3     1  UNL1        0.1107
      9 C         140.5335  144.7604  163.4806 C.3     1  UNL1        0.1116
     10 C         140.9974  143.8727  164.5971 C.ar    1  UNL1       -0.0130
     11 C         142.4183  143.3931  164.6330 C.ar    1  UNL1       -0.0022
     12 C         142.8823  142.5054  165.7496 C.ar    1  UNL1        0.0190
     13 C         141.9255  142.0973  166.8303 C.ar    1  UNL1        0.0862
     14 C         140.5047  142.5769  166.7944 C.ar    1  UNL1        0.0190
     15 C         140.0406  143.4646  165.6779 C.ar    1  UNL1       -0.0022
     16 N         142.3894  141.2096  167.9469 N.ar    1  UNL1       -0.1886
     17 C         142.4290  139.7104  167.9230 C.ar    1  UNL1        0.2258
     18 N         142.9593  139.2396  169.2447 N.ar    1  UNL1       -0.1045
     19 N         143.2474  140.4479  170.0857 N.ar    1  UNL1       -0.0222
     20 N         142.8952  141.6654  169.2834 N.ar    1  UNL1       -0.0385
     21 C         140.5148  140.2192  158.3204 C.3     1  UNL1        0.0769
     22 C         140.6727  138.7745  158.6918 C.3     1  UNL1        0.0437
     23 C         140.8645  138.3860  160.1280 C.ar    1  UNL1       -0.0210
     24 C         142.2443  138.1317  160.6583 C.ar    1  UNL1       -0.0045
     25 C         142.4361  137.7432  162.0944 C.ar    1  UNL1       -0.0024
     26 C         141.2479  137.6089  163.0001 C.ar    1  UNL1        0.0056
     27 C         139.8680  137.8632  162.4697 C.ar    1  UNL1        0.0054
     28 C         139.6763  138.2517  161.0337 C.ar    1  UNL1       -0.0063
     29 C         138.8945  137.6547  163.5917 C.3     1  UNL1        0.1688
     30 O         139.6727  137.2716  164.8154 O.3     1  UNL1       -0.3443
     31 C         141.1272  137.2433  164.4498 C.3     1  UNL1        0.1688
@<TRIPOS>BOND
     1     1     2    2
     2     2     9    1
     3     9    10    1
     4    10    11   ar
     5    11    12   ar
     6    12    13   ar
     7    13    16    1
     8    16    17   ar
     9    17    18   ar
    10    18    19   ar
    11    19    20   ar
    12    13    14   ar
    13    14    15   ar
    14     2     3   am
    15     3     4    1
    16     4     5    1
    17     5     6    1
    18     6    21    1
    19    21    22    1
    20    22    23    1
    21    23    24   ar
    22    24    25   ar
    23    25    26   ar
    24    26    27   ar
    25    27    28   ar
    26    27    29    1
    27    29    30    1
    28    30    31    1
    29     6     7    1
    30     7     8    1
    31    15    10   ar
    32     8     3    1
    33    20    16   ar
    34    28    23   ar
    35    31    26    1
