@<TRIPOS>MOLECULE
*****
 40 42 0 0 0
SMALL
GASTEIGER

@<TRIPOS>ATOM
      1 C         138.9610  142.5364  161.7466 C.2     1  UNL1        0.2485
      2 O         137.9673  143.6598  161.7290 O.2     1  UNL1       -0.2726
      3 N         139.9568  142.3985  160.6332 N.am    1  UNL1       -0.2823
      4 H         140.6090  141.6612  160.6447 H       1  UNL1        0.1549
      5 C         137.6155  137.9741  161.6438 C.3     1  UNL1        0.0949
      6 C         138.0151  139.4180  161.5715 C.2     1  UNL1        0.2269
      7 O         137.9056  140.1625  160.2740 O.2     1  UNL1       -0.2748
      8 N         138.5242  140.1175  162.7969 N.am    1  UNL1       -0.2655
      9 C         138.6880  139.5065  164.1570 C.3     1  UNL1        0.1206
     10 C         139.2240  140.5622  165.0780 C.ar    1  UNL1       -0.0030
     11 C         139.5811  140.5362  166.5346 C.ar    1  UNL1        0.0155
     12 C         140.1058  141.7737  167.2003 C.ar    1  UNL1        0.1055
     13 C         140.2733  143.0372  166.4094 C.ar    1  UNL1        0.0181
     14 C         139.9161  143.0632  164.9529 C.ar    1  UNL1       -0.0011
     15 C         139.3915  141.8257  164.2871 C.ar    1  UNL1        0.0022
     16 C         138.9590  141.5509  162.8774 C.3     1  UNL1        0.1750
     17 S         140.4630  141.7477  168.6570 S.O2    1  UNL1        0.0112
     18 O         140.3530  143.2427  168.7107 O.2     1  UNL1       -0.1685
     19 O         140.5730  140.2528  168.6033 O.2     1  UNL1       -0.1685
     20 C         140.8202  141.7217  170.1136 C.3     1  UNL1        0.1875
     21 C         141.0440  140.4109  170.8076 C.3     1  UNL1        0.1629
     22 O         139.8724  139.6065  171.2873 O.3     1  UNL1       -0.3801
     23 H         139.4168  140.0891  171.9948 H       1  UNL1        0.2105
     24 C         139.9588  143.3841  159.5024 C.ar    1  UNL1        0.0503
     25 C         139.2081  143.0788  158.2401 C.ar    1  UNL1        0.0144
     26 C         139.2100  144.0644  157.1093 C.ar    1  UNL1       -0.0002
     27 C         139.9627  145.3551  157.2409 C.ar    1  UNL1        0.0182
     28 C         140.7134  145.6604  158.5031 C.ar    1  UNL1       -0.0002
     29 C         140.7114  144.6748  159.6339 C.ar    1  UNL1        0.0144
     30 C         139.9647  146.3408  156.1101 C.3     1  UNL1        0.2827
     31 O         139.3693  147.3792  157.0141 O.3     1  UNL1       -0.3692
     32 H         139.2422  148.2039  156.5195 H       1  UNL1        0.2112
     33 C         139.9668  147.3263  154.9793 C.3     1  UNL1        0.4311
     34 F         139.9689  148.3118  153.8485 F       1  UNL1       -0.1669
     35 F         138.4668  147.3285  154.9785 F       1  UNL1       -0.1669
     36 F         140.8461  147.3960  154.8983 F       1  UNL1       -0.1669
     37 C         140.5602  145.3023  155.2062 C.3     1  UNL1        0.4311
     38 F         141.1555  144.2639  154.3021 F       1  UNL1       -0.1669
     39 F         139.8377  145.1609  154.7136 F       1  UNL1       -0.1669
     40 F         141.9712  145.1613  155.6951 F       1  UNL1       -0.1669
@<TRIPOS>BOND
     1     5     6    1
     2     6     7    2
     3     6     8   am
     4     8     9    1
     5     9    10    1
     6    10    11   ar
     7    11    12   ar
     8    12    17    1
     9    17    18    2
    10    17    19    2
    11    17    20    1
    12    20    21    1
    13    21    22    1
    14    12    13   ar
    15    13    14   ar
    16    14    15   ar
    17    15    16    1
    18    16     1    1
    19     1     2    2
    20     1     3   am
    21     3    24    1
    22    24    25   ar
    23    25    26   ar
    24    26    27   ar
    25    27    30    1
    26    30    31    1
    27    30    33    1
    28    33    34    1
    29    33    35    1
    30    33    36    1
    31    30    37    1
    32    37    38    1
    33    37    39    1
    34    37    40    1
    35    27    28   ar
    36    28    29   ar
    37    16     8    1
    38    29    24   ar
    39    15    10   ar
    40    22    23    1
    41     3     4    1
    42    31    32    1
@<TRIPOS>MOLECULE
*****
 40 42 0 0 0
SMALL
GASTEIGER

@<TRIPOS>ATOM
      1 C         140.5755  139.1891  161.7896 C.2     1  UNL1        0.2485
      2 O         140.1625  137.7475  161.8209 O.2     1  UNL1       -0.2726
      3 N         141.2149  139.7595  160.5583 N.am    1  UNL1       -0.2823
      4 H         141.4859  140.7057  160.5376 H       1  UNL1        0.1549
      5 C         137.8287  143.0603  162.1131 C.3     1  UNL1        0.0949
      6 C         138.6647  141.8319  161.9080 C.2     1  UNL1        0.2269
      7 O         138.6945  141.1602  160.5672 O.2     1  UNL1       -0.2748
      8 N         139.4709  141.2752  163.0438 N.am    1  UNL1       -0.2655
      9 C         139.5404  141.8354  164.4335 C.3     1  UNL1        0.1206
     10 C         140.4617  140.9669  165.2380 C.ar    1  UNL1       -0.0030
     11 C         140.9099  141.0333  166.6679 C.ar    1  UNL1        0.0155
     12 C         141.8580  140.0027  167.2052 C.ar    1  UNL1        0.1055
     13 C         142.3579  138.9056  166.3126 C.ar    1  UNL1        0.0181
     14 C         141.9096  138.8393  164.8828 C.ar    1  UNL1       -0.0011
     15 C         140.9615  139.8699  164.3454 C.ar    1  UNL1        0.0022
     16 C         140.3492  140.0604  162.9894 C.3     1  UNL1        0.1750
     17 S         142.3063  140.0690  168.6351 S.O2    1  UNL1        0.0112
     18 O         141.4754  141.3012  168.8385 O.2     1  UNL1       -0.1685
     19 O         143.1372  138.8369  168.4318 O.2     1  UNL1       -0.1685
     20 C         142.7546  140.1353  170.0650 C.3     1  UNL1        0.1875
     21 C         141.8540  140.7304  171.1066 C.3     1  UNL1        0.1629
     22 O         142.2192  142.0302  171.7600 O.3     1  UNL1       -0.3801
     23 H         143.0233  141.9113  172.2894 H       1  UNL1        0.2105
     24 C         141.4411  138.8882  159.3584 C.ar    1  UNL1        0.0503
     25 C         142.6132  137.9528  159.3211 C.ar    1  UNL1        0.0144
     26 C         142.8395  137.0815  158.1212 C.ar    1  UNL1       -0.0002
     27 C         141.8937  137.1456  156.9588 C.ar    1  UNL1        0.0182
     28 C         140.7216  138.0809  156.9962 C.ar    1  UNL1       -0.0002
     29 C         140.4953  138.9522  158.1960 C.ar    1  UNL1        0.0144
     30 C         142.1199  136.2743  155.7589 C.3     1  UNL1        0.2827
     31 O         140.7541  135.6790  155.9335 O.3     1  UNL1       -0.3692
     32 H         140.5977  135.0195  155.2396 H       1  UNL1        0.2112
     33 C         142.3462  135.4030  154.5590 C.3     1  UNL1        0.4311
     34 F         142.5725  134.5318  153.3591 F       1  UNL1       -0.1669
     35 F         142.3015  134.1858  155.4344 F       1  UNL1       -0.1669
     36 F         142.3886  136.0536  153.9595 F       1  UNL1       -0.1669
     37 C         143.4856  136.8695  155.5843 C.3     1  UNL1        0.4311
     38 F         144.8513  137.4648  155.4096 F       1  UNL1       -0.1669
     39 F         143.2205  137.6880  155.3736 F       1  UNL1       -0.1669
     40 F         144.4177  135.7295  155.8699 F       1  UNL1       -0.1669
@<TRIPOS>BOND
     1     5     6    1
     2     6     7    2
     3     6     8   am
     4     8     9    1
     5     9    10    1
     6    10    11   ar
     7    11    12   ar
     8    12    17    1
     9    17    18    2
    10    17    19    2
    11    17    20    1
    12    20    21    1
    13    21    22    1
    14    12    13   ar
    15    13    14   ar
    16    14    15   ar
    17    15    16    1
    18    16     1    1
    19     1     2    2
    20     1     3   am
    21     3    24    1
    22    24    25   ar
    23    25    26   ar
    24    26    27   ar
    25    27    30    1
    26    30    31    1
    27    30    33    1
    28    33    34    1
    29    33    35    1
    30    33    36    1
    31    30    37    1
    32    37    38    1
    33    37    39    1
    34    37    40    1
    35    27    28   ar
    36    28    29   ar
    37    16     8    1
    38    29    24   ar
    39    15    10   ar
    40    22    23    1
    41     3     4    1
    42    31    32    1
@<TRIPOS>MOLECULE
*****
 40 42 0 0 0
SMALL
GASTEIGER

@<TRIPOS>ATOM
      1 C         142.5741  140.1476  161.8898 C.2     1  UNL1        0.2485
      2 O         143.8872  139.4236  161.8543 O.2     1  UNL1       -0.2726
      3 N         142.1103  140.9191  160.6898 N.am    1  UNL1       -0.2823
      4 H         141.2484  141.3943  160.7131 H       1  UNL1        0.1549
      5 C         138.4039  137.9360  162.4851 C.3     1  UNL1        0.0949
      6 C         139.7191  138.5969  162.1962 C.2     1  UNL1        0.2269
      7 O         140.3410  138.4672  160.8374 O.2     1  UNL1       -0.2748
      8 N         140.4123  139.3874  163.2660 N.am    1  UNL1       -0.2655
      9 C         139.9150  139.6039  164.6645 C.3     1  UNL1        0.1206
     10 C         140.9199  140.4505  165.3880 C.ar    1  UNL1       -0.0030
     11 C         140.9610  140.9818  166.7901 C.ar    1  UNL1        0.0155
     12 C         142.1205  141.8197  167.2409 C.ar    1  UNL1        0.1055
     13 C         143.2390  142.1264  166.2895 C.ar    1  UNL1        0.0181
     14 C         143.1978  141.5952  164.8874 C.ar    1  UNL1       -0.0011
     15 C         142.0383  140.7572  164.4366 C.ar    1  UNL1        0.0022
     16 C         141.7246  140.1002  163.1252 C.3     1  UNL1        0.1750
     17 S         142.1617  142.3510  168.6431 S.O2    1  UNL1        0.0112
     18 O         143.6249  142.6433  168.4895 O.2     1  UNL1       -0.1685
     19 O         140.6985  142.0588  168.7967 O.2     1  UNL1       -0.1685
     20 C         142.2028  142.8823  170.0452 C.3     1  UNL1        0.1875
     21 C         141.8402  141.9909  171.1960 C.3     1  UNL1        0.1629
     22 O         140.5319  142.1770  171.9055 O.3     1  UNL1       -0.3801
     23 H         140.5284  143.0352  172.3576 H       1  UNL1        0.2105
     24 C         142.9598  140.9665  159.4545 C.ar    1  UNL1        0.0503
     25 C         143.9374  142.0873  159.2590 C.ar    1  UNL1        0.0144
     26 C         144.7869  142.1347  158.0237 C.ar    1  UNL1       -0.0002
     27 C         144.6587  141.0613  156.9838 C.ar    1  UNL1        0.0182
     28 C         143.6812  139.9405  157.1792 C.ar    1  UNL1       -0.0002
     29 C         142.8317  139.8931  158.4146 C.ar    1  UNL1        0.0144
     30 C         145.5082  141.1086  155.7484 C.3     1  UNL1        0.2827
     31 O         146.1425  139.8053  156.1344 O.3     1  UNL1       -0.3692
     32 H         146.7971  139.5533  155.4644 H       1  UNL1        0.2112
     33 C         146.3576  141.1561  154.5129 C.3     1  UNL1        0.4311
     34 F         147.2070  141.2035  153.2775 F       1  UNL1       -0.1669
     35 F         147.5759  141.3793  155.3591 F       1  UNL1       -0.1669
     36 F         145.7048  141.0286  153.9280 F       1  UNL1       -0.1669
     37 C         144.8739  142.4120  155.3623 C.3     1  UNL1        0.4311
     38 F         144.2397  143.7154  154.9762 F       1  UNL1       -0.1669
     39 F         145.5821  142.9238  155.5074 F       1  UNL1       -0.1669
     40 F         143.4725  142.0353  154.9826 F       1  UNL1       -0.1669
@<TRIPOS>BOND
     1     5     6    1
     2     6     7    2
     3     6     8   am
     4     8     9    1
     5     9    10    1
     6    10    11   ar
     7    11    12   ar
     8    12    17    1
     9    17    18    2
    10    17    19    2
    11    17    20    1
    12    20    21    1
    13    21    22    1
    14    12    13   ar
    15    13    14   ar
    16    14    15   ar
    17    15    16    1
    18    16     1    1
    19     1     2    2
    20     1     3   am
    21     3    24    1
    22    24    25   ar
    23    25    26   ar
    24    26    27   ar
    25    27    30    1
    26    30    31    1
    27    30    33    1
    28    33    34    1
    29    33    35    1
    30    33    36    1
    31    30    37    1
    32    37    38    1
    33    37    39    1
    34    37    40    1
    35    27    28   ar
    36    28    29   ar
    37    16     8    1
    38    29    24   ar
    39    15    10   ar
    40    22    23    1
    41     3     4    1
    42    31    32    1
@<TRIPOS>MOLECULE
*****
 40 42 0 0 0
SMALL
GASTEIGER

@<TRIPOS>ATOM
      1 C         139.2057  141.2153  161.6887 C.2     1  UNL1        0.2485
      2 O         137.8521  140.6245  161.4273 O.2     1  UNL1       -0.2726
      3 N         140.3079  141.0374  160.6868 N.am    1  UNL1       -0.2823
      4 H         141.1964  141.4251  160.8584 H       1  UNL1        0.1549
      5 C         139.8730  145.9009  162.1740 C.3     1  UNL1        0.0949
      6 C         139.6520  144.4401  161.9152 C.2     1  UNL1        0.2269
      7 O         139.4206  143.9530  160.5155 O.2     1  UNL1       -0.2748
      8 N         139.6625  143.4662  163.0561 N.am    1  UNL1       -0.2655
      9 C         139.8800  143.8036  164.5013 C.3     1  UNL1        0.1206
     10 C         139.8093  142.5300  165.2905 C.ar    1  UNL1       -0.0030
     11 C         139.9490  142.2489  166.7572 C.ar    1  UNL1        0.0155
     12 C         139.8275  140.8433  167.2664 C.ar    1  UNL1        0.1055
     13 C         139.5663  139.7187  166.3088 C.ar    1  UNL1        0.0181
     14 C         139.4266  139.9997  164.8421 C.ar    1  UNL1       -0.0011
     15 C         139.5481  141.4053  164.3329 C.ar    1  UNL1        0.0022
     16 C         139.4574  141.9840  162.9520 C.3     1  UNL1        0.1750
     17 S         139.9672  140.5622  168.7333 S.O2    1  UNL1        0.0112
     18 O         138.9008  139.5120  168.6336 O.2     1  UNL1       -0.1685
     19 O         141.0336  141.6124  168.8329 O.2     1  UNL1       -0.1685
     20 C         140.1069  140.2812  170.2000 C.3     1  UNL1        0.1875
     21 C         141.0453  141.1014  171.0348 C.3     1  UNL1        0.1629
     22 O         140.5110  142.2049  171.8989 O.3     1  UNL1       -0.3801
     23 H         140.1396  142.9037  171.3381 H       1  UNL1        0.2105
     24 C         140.0562  140.2687  159.4236 C.ar    1  UNL1        0.0503
     25 C         140.7340  138.9492  159.2008 C.ar    1  UNL1        0.0144
     26 C         140.4824  138.1805  157.9376 C.ar    1  UNL1       -0.0002
     27 C         139.5529  138.7314  156.8971 C.ar    1  UNL1        0.0182
     28 C         138.8750  140.0508  157.1199 C.ar    1  UNL1       -0.0002
     29 C         139.1267  140.8195  158.3831 C.ar    1  UNL1        0.0144
     30 C         139.3011  137.9627  155.6338 C.3     1  UNL1        0.2827
     31 O         138.7403  136.8266  156.4367 O.3     1  UNL1       -0.3692
     32 H         138.4660  136.1131  155.8396 H       1  UNL1        0.2112
     33 C         139.0494  137.1942  154.3705 C.3     1  UNL1        0.4311
     34 F         138.7977  136.4256  153.1072 F       1  UNL1       -0.1669
     35 F         137.5708  137.3072  154.5963 F       1  UNL1       -0.1669
     36 F         139.8979  137.0725  154.1472 F       1  UNL1       -0.1669
     37 C         139.8619  139.0989  154.8309 C.3     1  UNL1        0.4311
     38 F         140.4229  140.2350  154.0280 F       1  UNL1       -0.1669
     39 F         140.7034  139.0117  155.0936 F       1  UNL1       -0.1669
     40 F         138.6716  139.6535  154.1060 F       1  UNL1       -0.1669
@<TRIPOS>BOND
     1     5     6    1
     2     6     7    2
     3     6     8   am
     4     8     9    1
     5     9    10    1
     6    10    11   ar
     7    11    12   ar
     8    12    17    1
     9    17    18    2
    10    17    19    2
    11    17    20    1
    12    20    21    1
    13    21    22    1
    14    12    13   ar
    15    13    14   ar
    16    14    15   ar
    17    15    16    1
    18    16     1    1
    19     1     2    2
    20     1     3   am
    21     3    24    1
    22    24    25   ar
    23    25    26   ar
    24    26    27   ar
    25    27    30    1
    26    30    31    1
    27    30    33    1
    28    33    34    1
    29    33    35    1
    30    33    36    1
    31    30    37    1
    32    37    38    1
    33    37    39    1
    34    37    40    1
    35    27    28   ar
    36    28    29   ar
    37    16     8    1
    38    29    24   ar
    39    15    10   ar
    40    22    23    1
    41     3     4    1
    42    31    32    1
@<TRIPOS>MOLECULE
*****
 40 42 0 0 0
SMALL
GASTEIGER

@<TRIPOS>ATOM
      1 C         141.6331  139.0812  158.6947 C.2     1  UNL1        0.2485
      2 O         142.3918  138.1845  159.6275 O.2     1  UNL1       -0.2726
      3 N         140.4165  139.8119  159.1808 N.am    1  UNL1       -0.2823
      4 H         139.9184  140.4004  158.5686 H       1  UNL1        0.1549
      5 C         139.5577  137.4334  154.7433 C.3     1  UNL1        0.0949
      6 C         140.1322  137.9075  156.0453 C.2     1  UNL1        0.2269
      7 O         139.4382  137.5813  157.3344 O.2     1  UNL1       -0.2748
      8 N         141.4009  138.7078  156.0581 N.am    1  UNL1       -0.2655
      9 C         142.2024  139.1091  154.8555 C.3     1  UNL1        0.1206
     10 C         143.3876  139.8966  155.3299 C.ar    1  UNL1       -0.0030
     11 C         144.5208  140.5470  154.5931 C.ar    1  UNL1        0.0155
     12 C         145.5849  141.2827  155.3522 C.ar    1  UNL1        0.1055
     13 C         145.5158  141.3681  156.8482 C.ar    1  UNL1        0.0181
     14 C         144.3827  140.7177  157.5850 C.ar    1  UNL1       -0.0011
     15 C         143.3186  139.9820  156.8259 C.ar    1  UNL1        0.0022
     16 C         142.0907  139.2473  157.2759 C.3     1  UNL1        0.1750
     17 S         146.7181  141.9331  154.6154 S.O2    1  UNL1        0.0112
     18 O         145.8114  142.1913  153.4487 O.2     1  UNL1       -0.1685
     19 O         147.6248  141.6749  155.7820 O.2     1  UNL1       -0.1685
     20 C         147.8513  142.5834  153.8786 C.3     1  UNL1        0.1875
     21 C         147.7857  144.0431  153.5392 C.3     1  UNL1        0.1629
     22 O         146.8182  144.9372  154.2565 O.3     1  UNL1       -0.3801
     23 H         145.9108  144.6775  154.0324 H       1  UNL1        0.2105
     24 C         139.9588  139.6458  160.5996 C.ar    1  UNL1        0.0503
     25 C         140.5202  140.5260  161.6767 C.ar    1  UNL1        0.0144
     26 C         140.0625  140.3599  163.0955 C.ar    1  UNL1       -0.0002
     27 C         139.0435  139.3136  163.4371 C.ar    1  UNL1        0.0182
     28 C         138.4822  138.4334  162.3601 C.ar    1  UNL1       -0.0002
     29 C         138.9398  138.5994  160.9413 C.ar    1  UNL1        0.0144
     30 C         138.5858  139.1474  164.8559 C.3     1  UNL1        0.2827
     31 O         137.7009  140.3499  164.7113 O.3     1  UNL1       -0.3692
     32 H         137.2311  140.5078  165.5452 H       1  UNL1        0.2112
     33 C         138.1282  138.9812  166.2747 C.3     1  UNL1        0.4311
     34 F         137.6705  138.8150  167.6935 F       1  UNL1       -0.1669
     35 F         138.9040  140.2032  166.6681 F       1  UNL1       -0.1669
     36 F         137.6405  138.2531  166.1463 F       1  UNL1       -0.1669
     37 C         139.4707  137.9449  165.0005 C.3     1  UNL1        0.4311
     38 F         140.3556  136.7423  165.1450 F       1  UNL1       -0.1669
     39 F         138.9013  137.3517  164.6712 F       1  UNL1       -0.1669
     40 F         140.7330  138.4927  165.5977 F       1  UNL1       -0.1669
@<TRIPOS>BOND
     1     5     6    1
     2     6     7    2
     3     6     8   am
     4     8     9    1
     5     9    10    1
     6    10    11   ar
     7    11    12   ar
     8    12    17    1
     9    17    18    2
    10    17    19    2
    11    17    20    1
    12    20    21    1
    13    21    22    1
    14    12    13   ar
    15    13    14   ar
    16    14    15   ar
    17    15    16    1
    18    16     1    1
    19     1     2    2
    20     1     3   am
    21     3    24    1
    22    24    25   ar
    23    25    26   ar
    24    26    27   ar
    25    27    30    1
    26    30    31    1
    27    30    33    1
    28    33    34    1
    29    33    35    1
    30    33    36    1
    31    30    37    1
    32    37    38    1
    33    37    39    1
    34    37    40    1
    35    27    28   ar
    36    28    29   ar
    37    16     8    1
    38    29    24   ar
    39    15    10   ar
    40    22    23    1
    41     3     4    1
    42    31    32    1
@<TRIPOS>MOLECULE
*****
 40 42 0 0 0
SMALL
GASTEIGER

@<TRIPOS>ATOM
      1 C         141.5780  142.8191  162.4231 C.2     1  UNL1        0.2485
      2 O         140.9533  141.4782  162.6712 O.2     1  UNL1       -0.2726
      3 N         142.0372  143.6580  163.5788 N.am    1  UNL1       -0.2823
      4 H         142.4472  144.5381  163.4160 H       1  UNL1        0.1549
      5 C         139.5844  146.6558  160.4379 C.3     1  UNL1        0.0949
      6 C         140.1612  145.4712  161.1548 C.2     1  UNL1        0.2269
      7 O         139.8067  145.2175  162.5900 O.2     1  UNL1       -0.2748
      8 N         141.0925  144.5403  160.4364 N.am    1  UNL1       -0.2655
      9 C         141.5360  144.6648  159.0089 C.3     1  UNL1        0.1206
     10 C         142.4614  143.5228  158.7097 C.ar    1  UNL1       -0.0030
     11 C         143.2037  143.1318  157.4663 C.ar    1  UNL1        0.0155
     12 C         144.0743  141.9104  157.4654 C.ar    1  UNL1        0.1055
     13 C         144.2027  141.0800  158.7080 C.ar    1  UNL1        0.0181
     14 C         143.4604  141.4710  159.9514 C.ar    1  UNL1       -0.0011
     15 C         142.5897  142.6924  159.9522 C.ar    1  UNL1        0.0022
     16 C         141.7437  143.3212  161.0194 C.3     1  UNL1        0.1750
     17 S         144.8167  141.5194  156.2220 S.O2    1  UNL1        0.0112
     18 O         144.3565  142.7794  155.5509 O.2     1  UNL1       -0.1685
     19 O         145.2769  140.2593  156.8931 O.2     1  UNL1       -0.1685
     20 C         145.5590  141.1283  154.9786 C.3     1  UNL1        0.1875
     21 C         146.9682  141.5971  154.7677 C.3     1  UNL1        0.1629
     22 O         148.0021  141.3670  155.8298 O.3     1  UNL1       -0.3801
     23 H         147.7756  141.8837  156.6189 H       1  UNL1        0.2105
     24 C         141.8715  143.1559  164.9826 C.ar    1  UNL1        0.0503
     25 C         140.5335  143.2382  165.6555 C.ar    1  UNL1        0.0144
     26 C         140.3678  142.7361  167.0593 C.ar    1  UNL1       -0.0002
     27 C         141.5401  142.1517  167.7899 C.ar    1  UNL1        0.0182
     28 C         142.8782  142.0693  167.1170 C.ar    1  UNL1       -0.0002
     29 C         143.0439  142.5714  165.7132 C.ar    1  UNL1        0.0144
     30 C         141.3746  141.6495  169.1937 C.3     1  UNL1        0.2827
     31 O         141.6737  140.2546  168.7301 O.3     1  UNL1       -0.3692
     32 H         141.6372  139.6479  169.4860 H       1  UNL1        0.2112
     33 C         141.2089  141.1474  170.5974 C.3     1  UNL1        0.4311
     34 F         141.0433  140.6454  172.0012 F       1  UNL1       -0.1669
     35 F         140.0093  140.3538  170.1721 F       1  UNL1       -0.1669
     36 F         141.9001  141.5764  170.9479 F       1  UNL1       -0.1669
     37 C         141.0754  143.0444  169.6573 C.3     1  UNL1        0.4311
     38 F         140.7763  144.4393  170.1208 F       1  UNL1       -0.1669
     39 F         141.8876  143.3756  169.5339 F       1  UNL1       -0.1669
     40 F         139.6229  142.9997  170.0290 F       1  UNL1       -0.1669
@<TRIPOS>BOND
     1     5     6    1
     2     6     7    2
     3     6     8   am
     4     8     9    1
     5     9    10    1
     6    10    11   ar
     7    11    12   ar
     8    12    17    1
     9    17    18    2
    10    17    19    2
    11    17    20    1
    12    20    21    1
    13    21    22    1
    14    12    13   ar
    15    13    14   ar
    16    14    15   ar
    17    15    16    1
    18    16     1    1
    19     1     2    2
    20     1     3   am
    21     3    24    1
    22    24    25   ar
    23    25    26   ar
    24    26    27   ar
    25    27    30    1
    26    30    31    1
    27    30    33    1
    28    33    34    1
    29    33    35    1
    30    33    36    1
    31    30    37    1
    32    37    38    1
    33    37    39    1
    34    37    40    1
    35    27    28   ar
    36    28    29   ar
    37    16     8    1
    38    29    24   ar
    39    15    10   ar
    40    22    23    1
    41     3     4    1
    42    31    32    1
@<TRIPOS>MOLECULE
*****
 40 42 0 0 0
SMALL
GASTEIGER

@<TRIPOS>ATOM
      1 C         140.5136  140.6702  161.7399 C.2     1  UNL1        0.2485
      2 O         139.3814  139.7955  161.2895 O.2     1  UNL1       -0.2726
      3 N         141.8026  140.6828  160.9727 N.am    1  UNL1       -0.2823
      4 H         142.5458  141.2568  161.2683 H       1  UNL1        0.1549
      5 C         140.1632  145.4108  161.9381 C.3     1  UNL1        0.0949
      6 C         140.2815  143.9251  161.7687 C.2     1  UNL1        0.2269
      7 O         140.4309  143.3363  160.3972 O.2     1  UNL1       -0.2748
      8 N         140.2504  143.0283  162.9707 N.am    1  UNL1       -0.2655
      9 C         140.1070  143.4702  164.3969 C.3     1  UNL1        0.1206
     10 C         140.1252  142.2472  165.2652 C.ar    1  UNL1       -0.0030
     11 C         140.0210  142.0694  166.7509 C.ar    1  UNL1        0.0155
     12 C         140.0713  140.6939  167.3470 C.ar    1  UNL1        0.1055
     13 C         140.2258  139.4961  166.4574 C.ar    1  UNL1        0.0181
     14 C         140.3300  139.6739  164.9716 C.ar    1  UNL1       -0.0011
     15 C         140.2797  141.0494  164.3755 C.ar    1  UNL1        0.0022
     16 C         140.3571  141.5322  162.9575 C.3     1  UNL1        0.1750
     17 S         139.9670  140.5161  168.8329 S.O2    1  UNL1        0.0112
     18 O         141.1332  141.4397  169.0252 O.2     1  UNL1       -0.1685
     19 O         138.8009  139.5925  168.6405 O.2     1  UNL1       -0.1685
     20 C         139.8628  140.3383  170.3186 C.3     1  UNL1        0.1875
     21 C         140.9162  140.9132  171.2186 C.3     1  UNL1        0.1629
     22 O         140.6488  142.1836  171.9700 O.3     1  UNL1       -0.3801
     23 H         140.5539  142.9168  171.3421 H       1  UNL1        0.2105
     24 C         141.9592  139.8207  159.7552 C.ar    1  UNL1        0.0503
     25 C         141.5098  140.3254  158.4161 C.ar    1  UNL1        0.0144
     26 C         141.6664  139.4634  157.1985 C.ar    1  UNL1       -0.0002
     27 C         142.2724  138.0967  157.3202 C.ar    1  UNL1        0.0182
     28 C         142.7218  137.5920  158.6594 C.ar    1  UNL1       -0.0002
     29 C         142.5652  138.4540  159.8769 C.ar    1  UNL1        0.0144
     30 C         142.4290  137.2345  156.1027 C.3     1  UNL1        0.2827
     31 O         143.9170  137.4119  156.1685 O.3     1  UNL1       -0.3692
     32 H         144.3332  136.9245  155.4404 H       1  UNL1        0.2112
     33 C         142.5855  136.3724  154.8853 C.3     1  UNL1        0.4311
     34 F         142.7421  135.5103  153.6678 F       1  UNL1       -0.1669
     35 F         143.0648  137.5607  154.1054 F       1  UNL1       -0.1669
     36 F         142.3159  135.6139  155.2546 F       1  UNL1       -0.1669
     37 C         140.9410  137.0572  156.0370 C.3     1  UNL1        0.4311
     38 F         139.4529  136.8798  155.9714 F       1  UNL1       -0.1669
     39 F         140.8618  136.5427  156.7537 F       1  UNL1       -0.1669
     40 F         140.5346  137.8448  154.8268 F       1  UNL1       -0.1669
@<TRIPOS>BOND
     1     5     6    1
     2     6     7    2
     3     6     8   am
     4     8     9    1
     5     9    10    1
     6    10    11   ar
     7    11    12   ar
     8    12    17    1
     9    17    18    2
    10    17    19    2
    11    17    20    1
    12    20    21    1
    13    21    22    1
    14    12    13   ar
    15    13    14   ar
    16    14    15   ar
    17    15    16    1
    18    16     1    1
    19     1     2    2
    20     1     3   am
    21     3    24    1
    22    24    25   ar
    23    25    26   ar
    24    26    27   ar
    25    27    30    1
    26    30    31    1
    27    30    33    1
    28    33    34    1
    29    33    35    1
    30    33    36    1
    31    30    37    1
    32    37    38    1
    33    37    39    1
    34    37    40    1
    35    27    28   ar
    36    28    29   ar
    37    16     8    1
    38    29    24   ar
    39    15    10   ar
    40    22    23    1
    41     3     4    1
    42    31    32    1
@<TRIPOS>MOLECULE
*****
 40 42 0 0 0
SMALL
GASTEIGER

@<TRIPOS>ATOM
      1 C         142.6702  137.4175  157.6576 C.2     1  UNL1        0.2485
      2 O         143.7605  138.3675  157.2597 O.2     1  UNL1       -0.2726
      3 N         142.1305  137.4390  159.0570 N.am    1  UNL1       -0.2823
      4 H         141.4148  136.8154  159.3182 H       1  UNL1        0.1549
      5 C         138.7990  137.9068  154.9353 C.3     1  UNL1        0.0949
      6 C         139.9983  137.8498  155.8345 C.2     1  UNL1        0.2269
      7 O         140.3045  138.9979  156.7499 O.2     1  UNL1       -0.2748
      8 N         140.8913  136.6447  155.8182 N.am    1  UNL1       -0.2655
      9 C         140.7130  135.4267  154.9611 C.3     1  UNL1        0.1206
     10 C         141.8309  134.4752  155.2693 C.ar    1  UNL1       -0.0030
     11 C         142.1696  133.1166  154.7314 C.ar    1  UNL1        0.0155
     12 C         143.3776  132.3880  155.2411 C.ar    1  UNL1        0.1055
     13 C         144.2468  133.0180  156.2888 C.ar    1  UNL1        0.0181
     14 C         143.9081  134.3766  156.8267 C.ar    1  UNL1       -0.0011
     15 C         142.7001  135.1052  156.3170 C.ar    1  UNL1        0.0022
     16 C         142.1194  136.4460  156.6562 C.3     1  UNL1        0.1750
     17 S         143.7164  131.0293  154.7032 S.O2    1  UNL1        0.0112
     18 O         144.8618  130.9333  155.6669 O.2     1  UNL1       -0.1685
     19 O         142.5709  131.1253  153.7395 O.2     1  UNL1       -0.1685
     20 C         144.0551  129.6707  154.1653 C.3     1  UNL1        0.1875
     21 C         144.5691  129.5258  152.7635 C.3     1  UNL1        0.1629
     22 O         145.9684  129.0415  152.5240 O.3     1  UNL1       -0.3801
     23 H         146.5993  129.6965  152.8614 H       1  UNL1        0.2105
     24 C         142.6812  138.4105  160.0585 C.ar    1  UNL1        0.0503
     25 C         142.2630  139.8504  160.0150 C.ar    1  UNL1        0.0144
     26 C         142.8138  140.8219  161.0164 C.ar    1  UNL1       -0.0002
     27 C         143.7827  140.3535  162.0612 C.ar    1  UNL1        0.0182
     28 C         144.2009  138.9136  162.1047 C.ar    1  UNL1       -0.0002
     29 C         143.6501  137.9421  161.1033 C.ar    1  UNL1        0.0144
     30 C         144.3335  141.3249  163.0627 C.3     1  UNL1        0.2827
     31 O         145.3461  141.7874  162.0573 O.3     1  UNL1       -0.3692
     32 H         145.9002  142.4793  162.4512 H       1  UNL1        0.2112
     33 C         144.8843  142.2964  164.0642 C.3     1  UNL1        0.4311
     34 F         145.4350  143.2678  165.0657 F       1  UNL1       -0.1669
     35 F         146.1371  141.4781  164.1690 F       1  UNL1       -0.1669
     36 F         144.1897  142.8459  164.0750 F       1  UNL1       -0.1669
     37 C         143.3209  140.8625  164.0681 C.3     1  UNL1        0.4311
     38 F         142.3083  140.4000  165.0735 F       1  UNL1       -0.1669
     39 F         143.8520  140.3072  164.5087 F       1  UNL1       -0.1669
     40 F         142.0760  141.6148  163.7019 F       1  UNL1       -0.1669
@<TRIPOS>BOND
     1     5     6    1
     2     6     7    2
     3     6     8   am
     4     8     9    1
     5     9    10    1
     6    10    11   ar
     7    11    12   ar
     8    12    17    1
     9    17    18    2
    10    17    19    2
    11    17    20    1
    12    20    21    1
    13    21    22    1
    14    12    13   ar
    15    13    14   ar
    16    14    15   ar
    17    15    16    1
    18    16     1    1
    19     1     2    2
    20     1     3   am
    21     3    24    1
    22    24    25   ar
    23    25    26   ar
    24    26    27   ar
    25    27    30    1
    26    30    31    1
    27    30    33    1
    28    33    34    1
    29    33    35    1
    30    33    36    1
    31    30    37    1
    32    37    38    1
    33    37    39    1
    34    37    40    1
    35    27    28   ar
    36    28    29   ar
    37    16     8    1
    38    29    24   ar
    39    15    10   ar
    40    22    23    1
    41     3     4    1
    42    31    32    1
@<TRIPOS>MOLECULE
*****
 40 42 0 0 0
SMALL
GASTEIGER

@<TRIPOS>ATOM
      1 C         141.8697  142.0948  162.0556 C.2     1  UNL1        0.2485
      2 O         143.0036  142.9394  162.5562 O.2     1  UNL1       -0.2726
      3 N         140.9540  141.4148  163.0299 N.am    1  UNL1       -0.2823
      4 H         140.2097  140.8604  162.7014 H       1  UNL1        0.1549
      5 C         142.6759  138.2331  159.3960 C.3     1  UNL1        0.0949
      6 C         142.4564  139.3945  160.3195 C.2     1  UNL1        0.2269
      7 O         142.7722  139.2615  161.7798 O.2     1  UNL1       -0.2748
      8 N         141.9210  140.6888  159.7827 N.am    1  UNL1       -0.2655
      9 C         141.5614  140.9692  158.3538 C.3     1  UNL1        0.1206
     10 C         141.0694  142.3837  158.2686 C.ar    1  UNL1       -0.0030
     11 C         140.5780  143.2077  157.1155 C.ar    1  UNL1        0.0155
     12 C         140.1422  144.6255  157.3389 C.ar    1  UNL1        0.1055
     13 C         140.1978  145.2193  158.7152 C.ar    1  UNL1        0.0181
     14 C         140.6892  144.3953  159.8682 C.ar    1  UNL1       -0.0011
     15 C         141.1250  142.9775  159.6449 C.ar    1  UNL1        0.0022
     16 C         141.6514  141.9300  160.5807 C.3     1  UNL1        0.1750
     17 S         139.6507  145.4496  156.1858 S.O2    1  UNL1        0.0112
     18 O         140.7050  146.4777  156.4712 O.2     1  UNL1       -0.1685
     19 O         138.5965  144.4214  155.9004 O.2     1  UNL1       -0.1685
     20 C         139.1593  146.2735  155.0328 C.3     1  UNL1        0.1875
     21 C         139.0106  147.7588  155.1819 C.3     1  UNL1        0.1629
     22 O         138.4596  148.3335  156.4531 O.3     1  UNL1       -0.3801
     23 H         137.5324  148.0667  156.5533 H       1  UNL1        0.2105
     24 C         141.1723  141.5796  164.5048 C.ar    1  UNL1        0.0503
     25 C         142.2080  140.7522  165.2067 C.ar    1  UNL1        0.0144
     26 C         142.4263  140.9170  166.6815 C.ar    1  UNL1       -0.0002
     27 C         141.6089  141.9091  167.4544 C.ar    1  UNL1        0.0182
     28 C         140.5732  142.7365  166.7524 C.ar    1  UNL1       -0.0002
     29 C         140.3549  142.5717  165.2776 C.ar    1  UNL1        0.0144
     30 C         141.8271  142.0740  168.9293 C.3     1  UNL1        0.2827
     31 O         143.1891  142.6438  168.6641 O.3     1  UNL1       -0.3692
     32 H         143.6157  142.8671  169.5062 H       1  UNL1        0.2112
     33 C         142.0453  142.2388  170.4041 C.3     1  UNL1        0.4311
     34 F         142.2635  142.4036  171.8790 F       1  UNL1       -0.1669
     35 F         142.0727  143.7288  170.2336 F       1  UNL1       -0.1669
     36 F         142.0450  141.3774  170.6103 F       1  UNL1       -0.1669
     37 C         140.4651  141.5042  169.1944 C.3     1  UNL1        0.4311
     38 F         139.1031  140.9343  169.4595 F       1  UNL1       -0.1669
     39 F         140.6403  140.6776  168.9286 F       1  UNL1       -0.1669
     40 F         139.6833  142.6668  169.7302 F       1  UNL1       -0.1669
@<TRIPOS>BOND
     1     5     6    1
     2     6     7    2
     3     6     8   am
     4     8     9    1
     5     9    10    1
     6    10    11   ar
     7    11    12   ar
     8    12    17    1
     9    17    18    2
    10    17    19    2
    11    17    20    1
    12    20    21    1
    13    21    22    1
    14    12    13   ar
    15    13    14   ar
    16    14    15   ar
    17    15    16    1
    18    16     1    1
    19     1     2    2
    20     1     3   am
    21     3    24    1
    22    24    25   ar
    23    25    26   ar
    24    26    27   ar
    25    27    30    1
    26    30    31    1
    27    30    33    1
    28    33    34    1
    29    33    35    1
    30    33    36    1
    31    30    37    1
    32    37    38    1
    33    37    39    1
    34    37    40    1
    35    27    28   ar
    36    28    29   ar
    37    16     8    1
    38    29    24   ar
    39    15    10   ar
    40    22    23    1
    41     3     4    1
    42    31    32    1
