@<TRIPOS>MOLECULE
*****
 31 34 0 0 0
SMALL
GASTEIGER

@<TRIPOS>ATOM
      1 N         140.0680  141.0528  167.7398 N.ar    1  UNL1       -0.2465
      2 C         139.4267  139.7271  168.0247 C.ar    1  UNL1        0.1025
      3 C         138.6635  139.3093  166.8028 C.ar    1  UNL1        0.1051
      4 C         138.8331  140.3768  165.7627 C.ar    1  UNL1        0.1578
      5 N         139.7012  141.4544  166.3419 N.ar    1  UNL1       -0.1539
      6 C         142.2865  141.3325  169.0628 C.3     1  UNL1        0.1187
      7 C         143.1440  142.1187  170.0096 C.3     1  UNL1        0.0492
      8 C         142.6407  143.4114  170.5802 C.3     1  UNL1        0.1434
      9 O         141.2799  143.9179  170.2041 O.3     1  UNL1       -0.3516
     10 C         140.4224  143.1317  169.2573 C.3     1  UNL1        0.1674
     11 C         140.9257  141.8390  168.6867 C.3     1  UNL1        0.1488
     12 N         143.2930  138.7471  167.9216 N.1     1  UNL1       -0.1958
     13 C         142.7897  140.0398  168.4922 C.1     1  UNL1        0.0742
     14 C         137.8700  138.0458  166.6481 C.2     1  UNL1        0.2470
     15 N         136.8448  137.6731  167.6778 N.am    1  UNL1       -0.3252
     16 O         138.1015  137.1550  165.4637 O.2     1  UNL1       -0.2702
     17 H         136.6928  138.2578  168.4551 H       1  UNL1        0.1453
     18 H         136.3240  136.8439  167.5762 H       1  UNL1        0.1453
     19 N         138.2391  140.3683  164.3854 N.pl3   1  UNL1       -0.2964
     20 H         137.4814  139.7742  164.1798 H       1  UNL1        0.1537
     21 C         138.7994  141.2648  163.3214 C.ar    1  UNL1        0.0495
     22 C         140.2271  141.1123  162.8874 C.ar    1  UNL1        0.0162
     23 C         140.7874  142.0089  161.8234 C.ar    1  UNL1        0.0205
     24 C         139.9200  143.0580  161.1934 C.ar    1  UNL1        0.0846
     25 C         138.4924  143.2105  161.6273 C.ar    1  UNL1        0.0205
     26 C         137.9320  142.3139  162.6914 C.ar    1  UNL1        0.0162
     27 N         140.4803  143.9546  160.1293 N.ar    1  UNL1       -0.2089
     28 C         139.9029  144.1670  158.7612 C.ar    1  UNL1        0.1245
     29 C         140.7822  145.1399  158.0330 C.ar    1  UNL1        0.1445
     30 N         141.9030  145.5287  158.9508 N.ar    1  UNL1       -0.1268
     31 N         141.7164  144.7962  160.2465 N.ar    1  UNL1       -0.0595
@<TRIPOS>BOND
     1    12    13    3
     2     6    13    1
     3     6     7    1
     4     7     8    1
     5     8     9    1
     6     9    10    1
     7    10    11    1
     8    11     1    1
     9     1     2   ar
    10     2     3   ar
    11     3    14    1
    12    14    15   am
    13    14    16    2
    14     3     4   ar
    15     4    19    1
    16    19    21    1
    17    21    22   ar
    18    22    23   ar
    19    23    24   ar
    20    24    27    1
    21    27    28   ar
    22    28    29   ar
    23    29    30   ar
    24    30    31   ar
    25    24    25   ar
    26    25    26   ar
    27     4     5   ar
    28    11     6    1
    29     5     1   ar
    30    26    21   ar
    31    31    27   ar
    32    15    17    1
    33    15    18    1
    34    19    20    1
@<TRIPOS>MOLECULE
*****
 31 34 0 0 0
SMALL
GASTEIGER

@<TRIPOS>ATOM
      1 N         140.4000  143.0256  165.7644 N.ar    1  UNL1       -0.2465
      2 C         139.2681  143.5926  164.9599 C.ar    1  UNL1        0.1025
      3 C         139.8541  144.3580  163.8107 C.ar    1  UNL1        0.1051
      4 C         141.3482  144.2640  163.9048 C.ar    1  UNL1        0.1578
      5 N         141.6856  143.4405  165.1123 N.ar    1  UNL1       -0.1539
      6 C         139.7624  140.7817  166.9083 C.3     1  UNL1        0.1187
      7 C         139.6318  139.9464  168.1473 C.3     1  UNL1        0.0492
      8 C         140.0081  140.5196  169.4814 C.3     1  UNL1        0.1434
      9 O         140.5150  141.9281  169.5765 O.3     1  UNL1       -0.3516
     10 C         140.6457  142.7634  168.3375 C.3     1  UNL1        0.1674
     11 C         140.2694  142.1902  167.0034 C.3     1  UNL1        0.1488
     12 N         139.0098  139.6353  164.2401 N.1     1  UNL1       -0.1958
     13 C         139.3861  140.2085  165.5742 C.1     1  UNL1        0.0742
     14 C         139.0816  145.0891  162.7529 C.2     1  UNL1        0.2470
     15 N         137.6742  144.6798  162.4342 N.am    1  UNL1       -0.3252
     16 O         139.7165  146.2296  162.0139 O.2     1  UNL1       -0.2702
     17 H         137.2575  143.9312  162.9192 H       1  UNL1        0.1453
     18 H         137.1672  145.1596  161.7400 H       1  UNL1        0.1453
     19 N         142.3321  144.8845  162.9578 N.pl3   1  UNL1       -0.2964
     20 H         142.6241  145.8152  163.0913 H       1  UNL1        0.1537
     21 C         142.8712  144.0870  161.8074 C.ar    1  UNL1        0.0495
     22 C         144.2010  143.4034  161.9264 C.ar    1  UNL1        0.0162
     23 C         144.7400  142.6060  160.7760 C.ar    1  UNL1        0.0205
     24 C         143.9491  142.4921  159.5066 C.ar    1  UNL1        0.0846
     25 C         142.6193  143.1756  159.3875 C.ar    1  UNL1        0.0205
     26 C         142.0803  143.9731  160.5380 C.ar    1  UNL1        0.0162
     27 N         144.4881  141.6946  158.3561 N.ar    1  UNL1       -0.2089
     28 C         145.3741  142.2129  157.2622 C.ar    1  UNL1        0.1245
     29 C         145.6692  141.0774  156.3277 C.ar    1  UNL1        0.1445
     30 N         144.9657  139.8573  156.8438 N.ar    1  UNL1       -0.1268
     31 N         144.2357  140.2388  158.0974 N.ar    1  UNL1       -0.0595
@<TRIPOS>BOND
     1    12    13    3
     2     6    13    1
     3     6     7    1
     4     7     8    1
     5     8     9    1
     6     9    10    1
     7    10    11    1
     8    11     1    1
     9     1     2   ar
    10     2     3   ar
    11     3    14    1
    12    14    15   am
    13    14    16    2
    14     3     4   ar
    15     4    19    1
    16    19    21    1
    17    21    22   ar
    18    22    23   ar
    19    23    24   ar
    20    24    27    1
    21    27    28   ar
    22    28    29   ar
    23    29    30   ar
    24    30    31   ar
    25    24    25   ar
    26    25    26   ar
    27     4     5   ar
    28    11     6    1
    29     5     1   ar
    30    26    21   ar
    31    31    27   ar
    32    15    17    1
    33    15    18    1
    34    19    20    1
@<TRIPOS>MOLECULE
*****
 31 34 0 0 0
SMALL
GASTEIGER

@<TRIPOS>ATOM
      1 N         140.5109  141.5631  167.0706 N.ar    1  UNL1       -0.2465
      2 C         140.6627  142.9222  166.4544 C.ar    1  UNL1        0.1025
      3 C         139.6306  143.0595  165.3747 C.ar    1  UNL1        0.1051
      4 C         138.8409  141.7852  165.3234 C.ar    1  UNL1        0.1578
      5 N         139.3850  140.8603  166.3716 N.ar    1  UNL1       -0.1539
      6 C         141.4501  141.7510  169.4857 C.3     1  UNL1        0.1187
      7 C         142.2787  141.1925  170.6043 C.3     1  UNL1        0.0492
      8 C         142.9969  139.8877  170.4266 C.3     1  UNL1        0.1434
      9 O         142.8864  139.1413  169.1302 O.3     1  UNL1       -0.3516
     10 C         142.0578  139.6997  168.0116 C.3     1  UNL1        0.1674
     11 C         141.3396  141.0046  168.1893 C.3     1  UNL1        0.1488
     12 N         140.0138  144.3607  169.8411 N.1     1  UNL1       -0.1958
     13 C         140.7319  143.0559  169.6634 C.1     1  UNL1        0.0742
     14 C         139.4243  144.2603  164.4997 C.2     1  UNL1        0.2470
     15 N         140.5959  145.1079  164.1009 N.am    1  UNL1       -0.3252
     16 O         138.0465  144.6135  164.0235 O.2     1  UNL1       -0.2702
     17 H         141.5002  144.8761  164.4135 H       1  UNL1        0.1453
     18 H         140.4605  145.8960  163.5267 H       1  UNL1        0.1453
     19 N         137.7064  141.4879  164.3883 N.pl3   1  UNL1       -0.2964
     20 H         136.7770  141.6252  164.6826 H       1  UNL1        0.1537
     21 C         137.9880  140.9815  163.0047 C.ar    1  UNL1        0.0495
     22 C         138.0827  141.9443  161.8584 C.ar    1  UNL1        0.0162
     23 C         138.3642  141.4378  160.4749 C.ar    1  UNL1        0.0205
     24 C         138.5511  139.9685  160.2377 C.ar    1  UNL1        0.0846
     25 C         138.4564  139.0058  161.3840 C.ar    1  UNL1        0.0205
     26 C         138.1748  139.5122  162.7675 C.ar    1  UNL1        0.0162
     27 N         138.8326  139.4620  158.8541 N.ar    1  UNL1       -0.2089
     28 C         139.8608  138.4346  158.4835 C.ar    1  UNL1        0.1245
     29 C         139.7990  138.2317  156.9987 C.ar    1  UNL1        0.1445
     30 N         138.7327  139.1336  156.4515 N.ar    1  UNL1       -0.1268
     31 N         138.1354  139.8940  157.5982 N.ar    1  UNL1       -0.0595
@<TRIPOS>BOND
     1    12    13    3
     2     6    13    1
     3     6     7    1
     4     7     8    1
     5     8     9    1
     6     9    10    1
     7    10    11    1
     8    11     1    1
     9     1     2   ar
    10     2     3   ar
    11     3    14    1
    12    14    15   am
    13    14    16    2
    14     3     4   ar
    15     4    19    1
    16    19    21    1
    17    21    22   ar
    18    22    23   ar
    19    23    24   ar
    20    24    27    1
    21    27    28   ar
    22    28    29   ar
    23    29    30   ar
    24    30    31   ar
    25    24    25   ar
    26    25    26   ar
    27     4     5   ar
    28    11     6    1
    29     5     1   ar
    30    26    21   ar
    31    31    27   ar
    32    15    17    1
    33    15    18    1
    34    19    20    1
@<TRIPOS>MOLECULE
*****
 31 34 0 0 0
SMALL
GASTEIGER

@<TRIPOS>ATOM
      1 N         139.6279  141.0555  166.5307 N.ar    1  UNL1       -0.2465
      2 C         139.6396  142.4985  166.1215 C.ar    1  UNL1        0.1025
      3 C         138.7975  142.6374  164.8880 C.ar    1  UNL1        0.1051
      4 C         138.2652  141.2801  164.5349 C.ar    1  UNL1        0.1578
      5 N         138.7785  140.3025  165.5501 N.ar    1  UNL1       -0.1539
      6 C         141.7932  140.1091  167.6106 C.3     1  UNL1        0.1187
      7 C         142.5057  139.5221  168.7928 C.3     1  UNL1        0.0492
      8 C         141.7655  139.2944  170.0774 C.3     1  UNL1        0.1434
      9 O         140.3128  139.6536  170.1798 O.3     1  UNL1       -0.3516
     10 C         139.6003  140.2407  168.9976 C.3     1  UNL1        0.1674
     11 C         140.3405  140.4684  167.7130 C.3     1  UNL1        0.1488
     12 N         143.2736  140.5646  165.0413 N.1     1  UNL1       -0.1958
     13 C         142.5334  140.3369  166.3260 C.1     1  UNL1        0.0742
     14 C         138.5338  143.9101  164.1391 C.2     1  UNL1        0.2470
     15 N         139.3099  145.1500  164.4709 N.am    1  UNL1       -0.3252
     16 O         137.4941  143.9427  163.0585 O.2     1  UNL1       -0.2702
     17 H         139.9924  145.1286  165.1801 H       1  UNL1        0.1453
     18 H         139.1369  145.9853  163.9794 H       1  UNL1        0.1453
     19 N         137.3759  140.9573  163.3709 N.pl3   1  UNL1       -0.2964
     20 H         136.4060  141.1139  163.4341 H       1  UNL1        0.1537
     21 C         137.9644  140.3958  162.1106 C.ar    1  UNL1        0.0495
     22 C         138.3837  138.9566  162.0549 C.ar    1  UNL1        0.0162
     23 C         138.9721  138.3952  160.7946 C.ar    1  UNL1        0.0205
     24 C         139.1413  139.2728  159.5900 C.ar    1  UNL1        0.0846
     25 C         138.7220  140.7119  159.6457 C.ar    1  UNL1        0.0205
     26 C         138.1336  141.2734  160.9060 C.ar    1  UNL1        0.0162
     27 N         139.7298  138.7113  158.3296 N.ar    1  UNL1       -0.2089
     28 C         141.1326  138.2081  158.1594 C.ar    1  UNL1        0.1245
     29 C         141.2885  137.7403  156.7428 C.ar    1  UNL1        0.1445
     30 N         139.9821  137.9543  156.0375 N.ar    1  UNL1       -0.1268
     31 N         139.0188  138.5545  157.0182 N.ar    1  UNL1       -0.0595
@<TRIPOS>BOND
     1    12    13    3
     2     6    13    1
     3     6     7    1
     4     7     8    1
     5     8     9    1
     6     9    10    1
     7    10    11    1
     8    11     1    1
     9     1     2   ar
    10     2     3   ar
    11     3    14    1
    12    14    15   am
    13    14    16    2
    14     3     4   ar
    15     4    19    1
    16    19    21    1
    17    21    22   ar
    18    22    23   ar
    19    23    24   ar
    20    24    27    1
    21    27    28   ar
    22    28    29   ar
    23    29    30   ar
    24    30    31   ar
    25    24    25   ar
    26    25    26   ar
    27     4     5   ar
    28    11     6    1
    29     5     1   ar
    30    26    21   ar
    31    31    27   ar
    32    15    17    1
    33    15    18    1
    34    19    20    1
@<TRIPOS>MOLECULE
*****
 31 34 0 0 0
SMALL
GASTEIGER

@<TRIPOS>ATOM
      1 N         138.3874  141.0019  160.0089 N.ar    1  UNL1       -0.2465
      2 C         138.6466  142.4580  160.2591 C.ar    1  UNL1        0.1025
      3 C         138.2379  142.7659  161.6691 C.ar    1  UNL1        0.1051
      4 C         137.7260  141.5001  162.2904 C.ar    1  UNL1        0.1578
      5 N         137.8184  140.4099  161.2643 N.ar    1  UNL1       -0.1539
      6 C         139.7035  139.1994  158.6789 C.3     1  UNL1        0.1187
      7 C         139.9669  138.4643  157.3982 C.3     1  UNL1        0.0492
      8 C         139.1776  138.7967  156.1667 C.3     1  UNL1        0.1434
      9 O         138.1249  139.8641  156.2159 O.3     1  UNL1       -0.3516
     10 C         137.8615  140.5991  157.4966 C.3     1  UNL1        0.1674
     11 C         138.6508  140.2668  158.7281 C.3     1  UNL1        0.1488
     12 N         141.2820  138.5347  161.1419 N.1     1  UNL1       -0.1958
     13 C         140.4927  138.8670  159.9104 C.1     1  UNL1        0.0742
     14 C         138.3256  144.1046  162.3401 C.2     1  UNL1        0.2470
     15 N         139.2247  145.1668  161.7802 N.am    1  UNL1       -0.3252
     16 O         137.5142  144.3812  163.5710 O.2     1  UNL1       -0.2702
     17 H         139.7573  144.9852  160.9724 H       1  UNL1        0.1453
     18 H         139.2822  146.0454  162.2207 H       1  UNL1        0.1453
     19 N         137.2121  141.3508  163.6916 N.pl3   1  UNL1       -0.2964
     20 H         136.2559  141.4872  163.8824 H       1  UNL1        0.1537
     21 C         138.1550  140.9937  164.8022 C.ar    1  UNL1        0.0495
     22 C         138.0939  139.6324  165.4293 C.ar    1  UNL1        0.0162
     23 C         139.0367  139.2754  166.5399 C.ar    1  UNL1        0.0205
     24 C         140.0407  140.2795  167.0233 C.ar    1  UNL1        0.0846
     25 C         140.1018  141.6406  166.3962 C.ar    1  UNL1        0.0205
     26 C         139.1589  141.9978  165.2857 C.ar    1  UNL1        0.0162
     27 N         140.9837  139.9224  168.1340 N.ar    1  UNL1       -0.2089
     28 C         140.6596  139.9177  169.5985 C.ar    1  UNL1        0.1245
     29 C         141.8918  139.4997  170.3446 C.ar    1  UNL1        0.1445
     30 N         142.9775  139.2460  169.3413 N.ar    1  UNL1       -0.1268
     31 N         142.4163  139.5072  167.9750 N.ar    1  UNL1       -0.0595
@<TRIPOS>BOND
     1    12    13    3
     2     6    13    1
     3     6     7    1
     4     7     8    1
     5     8     9    1
     6     9    10    1
     7    10    11    1
     8    11     1    1
     9     1     2   ar
    10     2     3   ar
    11     3    14    1
    12    14    15   am
    13    14    16    2
    14     3     4   ar
    15     4    19    1
    16    19    21    1
    17    21    22   ar
    18    22    23   ar
    19    23    24   ar
    20    24    27    1
    21    27    28   ar
    22    28    29   ar
    23    29    30   ar
    24    30    31   ar
    25    24    25   ar
    26    25    26   ar
    27     4     5   ar
    28    11     6    1
    29     5     1   ar
    30    26    21   ar
    31    31    27   ar
    32    15    17    1
    33    15    18    1
    34    19    20    1
@<TRIPOS>MOLECULE
*****
 31 34 0 0 0
SMALL
GASTEIGER

@<TRIPOS>ATOM
      1 N         140.0964  138.8323  160.4326 N.ar    1  UNL1       -0.2465
      2 C         139.5920  140.1532  160.9334 C.ar    1  UNL1        0.1025
      3 C         139.0445  139.9468  162.3146 C.ar    1  UNL1        0.1051
      4 C         139.2106  138.4984  162.6674 C.ar    1  UNL1        0.1578
      5 N         139.8607  137.8096  161.5043 N.ar    1  UNL1       -0.1539
      6 C         142.2198  138.5663  158.9593 C.3     1  UNL1        0.1187
      7 C         142.8494  138.3126  157.6217 C.3     1  UNL1        0.0492
      8 C         141.9852  138.0714  156.4197 C.3     1  UNL1        0.1434
      9 O         140.4914  138.0837  156.5552 O.3     1  UNL1       -0.3516
     10 C         139.8618  138.3374  157.8929 C.3     1  UNL1        0.1674
     11 C         140.7261  138.5787  159.0949 C.3     1  UNL1        0.1488
     12 N         143.9483  139.0488  161.3634 N.1     1  UNL1       -0.1958
     13 C         143.0841  138.8076  160.1614 C.1     1  UNL1        0.0742
     14 C         138.4375  141.0034  163.1894 C.2     1  UNL1        0.2470
     15 N         136.9461  141.1263  163.2922 N.am    1  UNL1       -0.3252
     16 O         139.3219  141.9371  163.9613 O.2     1  UNL1       -0.2702
     17 H         136.3656  140.5135  162.7855 H       1  UNL1        0.1453
     18 H         136.5477  141.8197  163.8663 H       1  UNL1        0.1453
     19 N         138.7988  137.8522  163.9569 N.pl3   1  UNL1       -0.2964
     20 H         138.3167  136.9939  163.9455 H       1  UNL1        0.1537
     21 C         139.1217  138.5137  165.2639 C.ar    1  UNL1        0.0495
     22 C         138.0568  138.6701  166.3086 C.ar    1  UNL1        0.0162
     23 C         138.3797  139.3316  167.6155 C.ar    1  UNL1        0.0205
     24 C         139.7675  139.8368  167.8777 C.ar    1  UNL1        0.0846
     25 C         140.8324  139.6805  166.8330 C.ar    1  UNL1        0.0205
     26 C         140.5095  139.0189  165.5260 C.ar    1  UNL1        0.0162
     27 N         140.0904  140.4984  169.1847 N.ar    1  UNL1       -0.2089
     28 C         140.5081  141.9270  169.3703 C.ar    1  UNL1        0.1245
     29 C         140.7282  142.1590  170.8358 C.ar    1  UNL1        0.1445
     30 N         140.4465  140.8737  171.5559 N.ar    1  UNL1       -0.1268
     31 N         140.0523  139.8474  170.5355 N.ar    1  UNL1       -0.0595
@<TRIPOS>BOND
     1    12    13    3
     2     6    13    1
     3     6     7    1
     4     7     8    1
     5     8     9    1
     6     9    10    1
     7    10    11    1
     8    11     1    1
     9     1     2   ar
    10     2     3   ar
    11     3    14    1
    12    14    15   am
    13    14    16    2
    14     3     4   ar
    15     4    19    1
    16    19    21    1
    17    21    22   ar
    18    22    23   ar
    19    23    24   ar
    20    24    27    1
    21    27    28   ar
    22    28    29   ar
    23    29    30   ar
    24    30    31   ar
    25    24    25   ar
    26    25    26   ar
    27     4     5   ar
    28    11     6    1
    29     5     1   ar
    30    26    21   ar
    31    31    27   ar
    32    15    17    1
    33    15    18    1
    34    19    20    1
@<TRIPOS>MOLECULE
*****
 31 34 0 0 0
SMALL
GASTEIGER

@<TRIPOS>ATOM
      1 N         142.8768  139.3194  160.5236 N.ar    1  UNL1       -0.2465
      2 C         143.5416  140.6628  160.5794 C.ar    1  UNL1        0.1025
      3 C         144.3175  140.7431  161.8607 C.ar    1  UNL1        0.1051
      4 C         144.1322  139.4492  162.5967 C.ar    1  UNL1        0.1578
      5 N         143.2417  138.5694  161.7703 N.ar    1  UNL1       -0.1539
      6 C         140.5183  139.0368  159.4709 C.3     1  UNL1        0.1187
      7 C         139.6424  138.5320  158.3629 C.3     1  UNL1        0.0492
      8 C         140.2488  137.8050  157.1994 C.3     1  UNL1        0.1434
      9 O         141.7311  137.5827  157.1440 O.3     1  UNL1       -0.3516
     10 C         142.6071  138.0875  158.2520 C.3     1  UNL1        0.1674
     11 C         142.0007  138.8146  159.4155 C.3     1  UNL1        0.1488
     12 N         139.3055  140.4909  161.7979 N.1     1  UNL1       -0.1958
     13 C         139.9119  139.7638  160.6344 C.1     1  UNL1        0.0742
     14 C         145.1352  141.9120  162.3245 C.2     1  UNL1        0.2470
     15 N         144.8500  143.2851  161.7925 N.am    1  UNL1       -0.3252
     16 O         146.2381  141.7077  163.3204 O.2     1  UNL1       -0.2702
     17 H         144.1261  143.4192  161.1388 H       1  UNL1        0.1453
     18 H         145.3866  144.0523  162.0969 H       1  UNL1        0.1453
     19 N         144.7319  139.0971  163.9257 N.pl3   1  UNL1       -0.2964
     20 H         145.6148  138.6636  163.9680 H       1  UNL1        0.1537
     21 C         143.9865  139.4055  165.1903 C.ar    1  UNL1        0.0495
     22 C         143.4180  140.7761  165.4105 C.ar    1  UNL1        0.0162
     23 C         142.6726  141.0844  166.6751 C.ar    1  UNL1        0.0205
     24 C         142.4957  140.0223  167.7194 C.ar    1  UNL1        0.0846
     25 C         143.0641  138.6519  167.4991 C.ar    1  UNL1        0.0205
     26 C         143.8096  138.3434  166.2346 C.ar    1  UNL1        0.0162
     27 N         141.7502  140.3307  168.9841 N.ar    1  UNL1       -0.2089
     28 C         142.2140  141.2427  170.0809 C.ar    1  UNL1        0.1245
     29 C         141.1605  141.2568  171.1485 C.ar    1  UNL1        0.1445
     30 N         140.0456  140.3536  170.7116 N.ar    1  UNL1       -0.1268
     31 N         140.4100  139.7811  169.3739 N.ar    1  UNL1       -0.0595
@<TRIPOS>BOND
     1    12    13    3
     2     6    13    1
     3     6     7    1
     4     7     8    1
     5     8     9    1
     6     9    10    1
     7    10    11    1
     8    11     1    1
     9     1     2   ar
    10     2     3   ar
    11     3    14    1
    12    14    15   am
    13    14    16    2
    14     3     4   ar
    15     4    19    1
    16    19    21    1
    17    21    22   ar
    18    22    23   ar
    19    23    24   ar
    20    24    27    1
    21    27    28   ar
    22    28    29   ar
    23    29    30   ar
    24    30    31   ar
    25    24    25   ar
    26    25    26   ar
    27     4     5   ar
    28    11     6    1
    29     5     1   ar
    30    26    21   ar
    31    31    27   ar
    32    15    17    1
    33    15    18    1
    34    19    20    1
@<TRIPOS>MOLECULE
*****
 31 34 0 0 0
SMALL
GASTEIGER

@<TRIPOS>ATOM
      1 N         139.7200  142.0437  160.8115 N.ar    1  UNL1       -0.2465
      2 C         139.9595  140.5833  160.5671 C.ar    1  UNL1        0.1025
      3 C         139.2690  139.8123  161.6528 C.ar    1  UNL1        0.1051
      4 C         138.6025  140.7963  162.5681 C.ar    1  UNL1        0.1578
      5 N         138.8813  142.1753  162.0481 N.ar    1  UNL1       -0.1539
      6 C         139.6525  143.4110  158.6032 C.3     1  UNL1        0.1187
      7 C         140.1621  144.5413  157.7592 C.3     1  UNL1        0.0492
      8 C         141.2488  145.4350  158.2792 C.3     1  UNL1        0.1434
      9 O         141.8259  145.1982  159.6433 O.3     1  UNL1       -0.3516
     10 C         141.3163  144.0678  160.4874 C.3     1  UNL1        0.1674
     11 C         140.2296  143.1742  159.9673 C.3     1  UNL1        0.1488
     12 N         137.4790  141.6237  157.5631 N.1     1  UNL1       -0.1958
     13 C         138.5657  142.5173  158.0832 C.1     1  UNL1        0.0742
     14 C         139.2484  138.3194  161.7977 C.2     1  UNL1        0.2470
     15 N         137.9396  137.5877  161.8370 N.am    1  UNL1       -0.3252
     16 O         140.5366  137.5583  161.9032 O.2     1  UNL1       -0.2702
     17 H         137.0940  138.0872  161.7677 H       1  UNL1        0.1453
     18 H         137.9261  136.6079  161.9321 H       1  UNL1        0.1453
     19 N         137.7985  140.4601  163.7890 N.pl3   1  UNL1       -0.2964
     20 H         136.8514  140.2065  163.7003 H       1  UNL1        0.1537
     21 C         138.4376  140.5104  165.1451 C.ar    1  UNL1        0.0495
     22 C         139.3113  141.6706  165.5200 C.ar    1  UNL1        0.0162
     23 C         139.9503  141.7208  166.8760 C.ar    1  UNL1        0.0205
     24 C         139.7158  140.6108  167.8573 C.ar    1  UNL1        0.0846
     25 C         138.8422  139.4506  167.4824 C.ar    1  UNL1        0.0205
     26 C         138.2031  139.4003  166.1263 C.ar    1  UNL1        0.0162
     27 N         140.3549  140.6610  169.2134 N.ar    1  UNL1       -0.2089
     28 C         141.7801  140.3165  169.5298 C.ar    1  UNL1        0.1245
     29 C         141.9869  140.5071  171.0032 C.ar    1  UNL1        0.1445
     30 N         140.6896  140.9693  171.5974 N.ar    1  UNL1       -0.1268
     31 N         139.6809  141.0644  170.4913 N.ar    1  UNL1       -0.0595
@<TRIPOS>BOND
     1    12    13    3
     2     6    13    1
     3     6     7    1
     4     7     8    1
     5     8     9    1
     6     9    10    1
     7    10    11    1
     8    11     1    1
     9     1     2   ar
    10     2     3   ar
    11     3    14    1
    12    14    15   am
    13    14    16    2
    14     3     4   ar
    15     4    19    1
    16    19    21    1
    17    21    22   ar
    18    22    23   ar
    19    23    24   ar
    20    24    27    1
    21    27    28   ar
    22    28    29   ar
    23    29    30   ar
    24    30    31   ar
    25    24    25   ar
    26    25    26   ar
    27     4     5   ar
    28    11     6    1
    29     5     1   ar
    30    26    21   ar
    31    31    27   ar
    32    15    17    1
    33    15    18    1
    34    19    20    1
@<TRIPOS>MOLECULE
*****
 31 34 0 0 0
SMALL
GASTEIGER

@<TRIPOS>ATOM
      1 N         142.3443  141.3264  166.6572 N.ar    1  UNL1       -0.2465
      2 C         143.2927  140.4228  165.9266 C.ar    1  UNL1        0.1025
      3 C         143.9355  141.2163  164.8279 C.ar    1  UNL1        0.1051
      4 C         143.3843  142.6105  164.8795 C.ar    1  UNL1        0.1578
      5 N         142.4009  142.6785  166.0101 N.ar    1  UNL1       -0.1539
      6 C         141.9099  141.3223  169.2188 C.3     1  UNL1        0.1187
      7 C         141.0549  140.9409  170.3907 C.3     1  UNL1        0.0492
      8 C         139.7794  140.1821  170.1732 C.3     1  UNL1        0.1434
      9 O         139.3588  139.8048  168.7837 O.3     1  UNL1       -0.3516
     10 C         140.2138  140.1862  167.6118 C.3     1  UNL1        0.1674
     11 C         141.4893  140.9450  167.8293 C.3     1  UNL1        0.1488
     12 N         144.4610  142.8398  169.6538 N.1     1  UNL1       -0.1958
     13 C         143.1854  142.0811  169.4363 C.1     1  UNL1        0.0742
     14 C         144.9511  140.7055  163.8493 C.2     1  UNL1        0.2470
     15 N         144.9190  139.2699  163.4157 N.am    1  UNL1       -0.3252
     16 O         145.9988  141.6302  163.3043 O.2     1  UNL1       -0.2702
     17 H         144.2313  138.6629  163.7734 H       1  UNL1        0.1453
     18 H         145.5856  138.9346  162.7735 H       1  UNL1        0.1453
     19 N         143.7519  143.7385  163.9617 N.pl3   1  UNL1       -0.2964
     20 H         144.4833  144.3515  164.2036 H       1  UNL1        0.1537
     21 C         143.0052  143.9325  162.6753 C.ar    1  UNL1        0.0495
     22 C         141.7947  144.8175  162.6369 C.ar    1  UNL1        0.0162
     23 C         141.0481  145.0115  161.3506 C.ar    1  UNL1        0.0205
     24 C         141.5119  144.3205  160.1026 C.ar    1  UNL1        0.0846
     25 C         142.7223  143.4356  160.1410 C.ar    1  UNL1        0.0205
     26 C         143.4690  143.2415  161.4274 C.ar    1  UNL1        0.0162
     27 N         140.7652  144.5145  158.8162 N.ar    1  UNL1       -0.2089
     28 C         140.7977  145.7417  157.9542 C.ar    1  UNL1        0.1245
     29 C         139.9075  145.5009  156.7712 C.ar    1  UNL1        0.1445
     30 N         139.3248  144.1250  156.9020 N.ar    1  UNL1       -0.1268
     31 N         139.8548  143.5153  158.1658 N.ar    1  UNL1       -0.0595
@<TRIPOS>BOND
     1    12    13    3
     2     6    13    1
     3     6     7    1
     4     7     8    1
     5     8     9    1
     6     9    10    1
     7    10    11    1
     8    11     1    1
     9     1     2   ar
    10     2     3   ar
    11     3    14    1
    12    14    15   am
    13    14    16    2
    14     3     4   ar
    15     4    19    1
    16    19    21    1
    17    21    22   ar
    18    22    23   ar
    19    23    24   ar
    20    24    27    1
    21    27    28   ar
    22    28    29   ar
    23    29    30   ar
    24    30    31   ar
    25    24    25   ar
    26    25    26   ar
    27     4     5   ar
    28    11     6    1
    29     5     1   ar
    30    26    21   ar
    31    31    27   ar
    32    15    17    1
    33    15    18    1
    34    19    20    1
