@<TRIPOS>MOLECULE
*****
 28 30 0 0 0
SMALL
GASTEIGER

@<TRIPOS>ATOM
      1 N         142.2110  143.4827  161.7426 N.3     1  UNL1       -0.2682
      2 C         143.2722  143.9865  162.6755 C.3     1  UNL1        0.0897
      3 C         143.6172  143.2073  163.9098 C.3     1  UNL1        0.0899
      4 N         142.9011  141.9242  164.2115 N.3     1  UNL1       -0.2665
      5 C         141.8399  141.4204  163.2787 C.3     1  UNL1        0.0899
      6 C         141.4949  142.1996  162.0442 C.3     1  UNL1        0.0897
      7 C         141.8660  144.2619  160.5082 C.3     1  UNL1        0.1056
      8 O         139.6247  144.5177  159.2195 O.3     1  UNL1       -0.3793
      9 C         140.5103  144.8890  160.3717 C.3     1  UNL1        0.1700
     10 H         138.7911  145.0099  159.2806 H       1  UNL1        0.2106
     11 C         140.0402  145.8877  161.3875 C.3     1  UNL1        0.2358
     12 O         138.7702  145.6435  162.1473 O.3     1  UNL1       -0.4728
     13 C         138.6169  144.3999  162.9721 C.ar    1  UNL1        0.1388
     14 C         139.2828  144.3021  164.3126 C.ar    1  UNL1        0.0392
     15 C         139.1294  143.0586  165.1372 C.ar    1  UNL1        0.0327
     16 C         138.3102  141.9128  164.6213 C.ar    1  UNL1        0.1403
     17 F         138.1569  140.6692  165.4461 F       1  UNL1       -0.2042
     18 C         137.6443  142.0106  163.2808 C.ar    1  UNL1        0.0327
     19 C         137.7977  143.2541  162.4562 C.ar    1  UNL1        0.0392
     20 C         143.2461  141.1450  165.4459 C.3     1  UNL1        0.0992
     21 C         142.4329  141.3190  166.6943 C.ar    1  UNL1       -0.0052
     22 C         142.8598  142.3111  167.7352 C.ar    1  UNL1       -0.0020
     23 C         142.0468  142.4851  168.9837 C.ar    1  UNL1        0.0120
     24 C         140.8067  141.6669  169.1913 C.ar    1  UNL1        0.0682
     25 CL        139.9937  141.8409  170.4397 Cl      1  UNL1       -0.0814
     26 C         140.3798  140.6748  168.1504 C.ar    1  UNL1        0.0679
     27 CL        139.1399  139.8567  168.3579 Cl      1  UNL1       -0.0814
     28 C         141.1930  140.5009  166.9019 C.ar    1  UNL1        0.0093
@<TRIPOS>BOND
     1     9     8    1
     2     9    11    1
     3    11    12    1
     4    12    13    1
     5    13    14   ar
     6    14    15   ar
     7    15    16   ar
     8    16    17    1
     9    16    18   ar
    10    18    19   ar
    11     9     7    1
    12     7     1    1
    13     1     2    1
    14     2     3    1
    15     3     4    1
    16     4    20    1
    17    20    21    1
    18    21    22   ar
    19    22    23   ar
    20    23    24   ar
    21    24    25    1
    22    24    26   ar
    23    26    27    1
    24    26    28   ar
    25     4     5    1
    26     5     6    1
    27    19    13   ar
    28     6     1    1
    29    28    21   ar
    30     8    10    1
@<TRIPOS>MOLECULE
*****
 28 30 0 0 0
SMALL
GASTEIGER

@<TRIPOS>ATOM
      1 N         142.9841  140.6605  162.5117 N.3     1  UNL1       -0.2682
      2 C         143.2508  140.5463  163.9834 C.3     1  UNL1        0.0897
      3 C         142.1724  140.8845  164.9696 C.3     1  UNL1        0.0899
      4 N         140.8271  141.3369  164.4840 N.3     1  UNL1       -0.2665
      5 C         140.5603  141.4510  163.0124 C.3     1  UNL1        0.0899
      6 C         141.6388  141.1128  162.0262 C.3     1  UNL1        0.0897
      7 C         144.0625  140.3223  161.5256 C.3     1  UNL1        0.1056
      8 O         144.1857  139.2930  159.1433 O.3     1  UNL1       -0.3793
      9 C         143.8982  139.1470  160.6082 C.3     1  UNL1        0.1700
     10 H         144.0308  138.4456  158.6973 H       1  UNL1        0.2106
     11 C         143.4463  137.8256  161.1557 C.3     1  UNL1        0.2358
     12 O         142.0138  137.4044  161.0119 O.3     1  UNL1       -0.4728
     13 C         141.0576  137.5966  162.1515 C.ar    1  UNL1        0.1388
     14 C         139.6322  137.9758  161.8787 C.ar    1  UNL1        0.0392
     15 C         138.6760  138.1679  163.0183 C.ar    1  UNL1        0.0327
     16 C         139.1451  137.9807  164.4307 C.ar    1  UNL1        0.1403
     17 F         138.1889  138.1729  165.5704 F       1  UNL1       -0.2042
     18 C         140.5705  137.6015  164.7035 C.ar    1  UNL1        0.0327
     19 C         141.5267  137.4094  163.5639 C.ar    1  UNL1        0.0392
     20 C         139.7487  141.6751  165.4702 C.3     1  UNL1        0.0992
     21 C         140.0105  141.5463  166.9416 C.ar    1  UNL1       -0.0052
     22 C         139.8547  140.2164  167.6175 C.ar    1  UNL1       -0.0020
     23 C         140.1165  140.0876  169.0888 C.ar    1  UNL1        0.0120
     24 C         140.5342  141.2888  169.8843 C.ar    1  UNL1        0.0682
     25 CL        140.7961  141.1600  171.3556 Cl      1  UNL1       -0.0814
     26 C         140.6901  142.6188  169.2083 C.ar    1  UNL1        0.0679
     27 CL        141.1077  143.8200  170.0037 Cl      1  UNL1       -0.0814
     28 C         140.4282  142.7475  167.7369 C.ar    1  UNL1        0.0093
@<TRIPOS>BOND
     1     9     8    1
     2     9    11    1
     3    11    12    1
     4    12    13    1
     5    13    14   ar
     6    14    15   ar
     7    15    16   ar
     8    16    17    1
     9    16    18   ar
    10    18    19   ar
    11     9     7    1
    12     7     1    1
    13     1     2    1
    14     2     3    1
    15     3     4    1
    16     4    20    1
    17    20    21    1
    18    21    22   ar
    19    22    23   ar
    20    23    24   ar
    21    24    25    1
    22    24    26   ar
    23    26    27    1
    24    26    28   ar
    25     4     5    1
    26     5     6    1
    27    19    13   ar
    28     6     1    1
    29    28    21   ar
    30     8    10    1
@<TRIPOS>MOLECULE
*****
 28 30 0 0 0
SMALL
GASTEIGER

@<TRIPOS>ATOM
      1 N         141.7110  143.4308  162.5108 N.3     1  UNL1       -0.2682
      2 C         142.0181  143.5989  163.9694 C.3     1  UNL1        0.0897
      3 C         142.1269  142.3943  164.8566 C.3     1  UNL1        0.0899
      4 N         141.9286  141.0216  164.2853 N.3     1  UNL1       -0.2665
      5 C         141.6215  140.8535  162.8267 C.3     1  UNL1        0.0899
      6 C         141.5127  142.0581  161.9394 C.3     1  UNL1        0.0897
      7 C         141.6023  144.6354  161.6236 C.3     1  UNL1        0.1056
      8 O         139.8529  145.1354  159.7690 O.3     1  UNL1       -0.3793
      9 C         140.2525  145.1462  161.2147 C.3     1  UNL1        0.1700
     10 H         138.9572  145.4965  159.6784 H       1  UNL1        0.2106
     11 C         139.3023  145.6678  162.2516 C.3     1  UNL1        0.2358
     12 O         138.0087  144.9540  162.5102 O.3     1  UNL1       -0.4728
     13 C         138.0150  143.5003  162.8801 C.ar    1  UNL1        0.1388
     14 C         138.2109  143.0911  164.3098 C.ar    1  UNL1        0.0392
     15 C         138.2172  141.6374  164.6796 C.ar    1  UNL1        0.0327
     16 C         138.0278  140.5930  163.6198 C.ar    1  UNL1        0.1403
     17 F         138.0342  139.1393  163.9897 F       1  UNL1       -0.2042
     18 C         137.8320  141.0023  162.1901 C.ar    1  UNL1        0.0327
     19 C         137.8256  142.4559  161.8202 C.ar    1  UNL1        0.0392
     20 C         142.0374  139.8171  165.1725 C.3     1  UNL1        0.0992
     21 C         141.5282  139.8754  166.5822 C.ar    1  UNL1       -0.0052
     22 C         140.0531  139.9497  166.8443 C.ar    1  UNL1       -0.0020
     23 C         139.5439  140.0080  168.2540 C.ar    1  UNL1        0.0120
     24 C         140.5097  139.9922  169.4017 C.ar    1  UNL1        0.0682
     25 CL        140.0004  140.0505  170.8113 Cl      1  UNL1       -0.0814
     26 C         141.9847  139.9179  169.1395 C.ar    1  UNL1        0.0679
     27 CL        142.9506  139.9020  170.2871 Cl      1  UNL1       -0.0814
     28 C         142.4940  139.8596  167.7298 C.ar    1  UNL1        0.0093
@<TRIPOS>BOND
     1     9     8    1
     2     9    11    1
     3    11    12    1
     4    12    13    1
     5    13    14   ar
     6    14    15   ar
     7    15    16   ar
     8    16    17    1
     9    16    18   ar
    10    18    19   ar
    11     9     7    1
    12     7     1    1
    13     1     2    1
    14     2     3    1
    15     3     4    1
    16     4    20    1
    17    20    21    1
    18    21    22   ar
    19    22    23   ar
    20    23    24   ar
    21    24    25    1
    22    24    26   ar
    23    26    27    1
    24    26    28   ar
    25     4     5    1
    26     5     6    1
    27    19    13   ar
    28     6     1    1
    29    28    21   ar
    30     8    10    1
@<TRIPOS>MOLECULE
*****
 28 30 0 0 0
SMALL
GASTEIGER

@<TRIPOS>ATOM
      1 N         138.7081  139.7608  159.7982 N.3     1  UNL1       -0.2682
      2 C         137.5943  139.4988  160.7682 C.3     1  UNL1        0.0897
      3 C         137.8708  138.7665  162.0477 C.3     1  UNL1        0.0899
      4 N         139.2611  138.2960  162.3572 N.3     1  UNL1       -0.2665
      5 C         140.3749  138.5580  161.3873 C.3     1  UNL1        0.0899
      6 C         140.0983  139.2903  160.1077 C.3     1  UNL1        0.0897
      7 C         138.4315  140.4931  158.5187 C.3     1  UNL1        0.1056
      8 O         137.6608  142.6887  157.3631 O.3     1  UNL1       -0.3793
      9 C         138.3049  141.9877  158.5223 C.3     1  UNL1        0.1700
     10 H         137.6596  143.6453  157.5239 H       1  UNL1        0.2106
     11 C         138.8224  142.7814  159.6853 C.3     1  UNL1        0.2358
     12 O         137.8973  143.1667  160.8014 O.3     1  UNL1       -0.4728
     13 C         138.3767  143.1221  162.2221 C.ar    1  UNL1        0.1388
     14 C         139.4505  142.1539  162.6212 C.ar    1  UNL1        0.0392
     15 C         139.9298  142.1093  164.0419 C.ar    1  UNL1        0.0327
     16 C         139.3353  143.0329  165.0633 C.ar    1  UNL1        0.1403
     17 F         139.8146  142.9883  166.4840 F       1  UNL1       -0.2042
     18 C         138.2615  144.0012  164.6642 C.ar    1  UNL1        0.0327
     19 C         137.7822  144.0458  163.2435 C.ar    1  UNL1        0.0392
     20 C         139.5377  137.5637  163.6367 C.3     1  UNL1        0.0992
     21 C         139.5837  138.3134  164.9352 C.ar    1  UNL1       -0.0052
     22 C         138.3451  138.4416  165.7715 C.ar    1  UNL1       -0.0020
     23 C         138.3911  139.1912  167.0699 C.ar    1  UNL1        0.0120
     24 C         139.6758  139.8128  167.5320 C.ar    1  UNL1        0.0682
     25 CL        139.7218  140.5624  168.8304 Cl      1  UNL1       -0.0814
     26 C         140.9143  139.6846  166.6957 C.ar    1  UNL1        0.0679
     27 CL        142.1989  140.3061  167.1577 Cl      1  UNL1       -0.0814
     28 C         140.8683  138.9349  165.3972 C.ar    1  UNL1        0.0093
@<TRIPOS>BOND
     1     9     8    1
     2     9    11    1
     3    11    12    1
     4    12    13    1
     5    13    14   ar
     6    14    15   ar
     7    15    16   ar
     8    16    17    1
     9    16    18   ar
    10    18    19   ar
    11     9     7    1
    12     7     1    1
    13     1     2    1
    14     2     3    1
    15     3     4    1
    16     4    20    1
    17    20    21    1
    18    21    22   ar
    19    22    23   ar
    20    23    24   ar
    21    24    25    1
    22    24    26   ar
    23    26    27    1
    24    26    28   ar
    25     4     5    1
    26     5     6    1
    27    19    13   ar
    28     6     1    1
    29    28    21   ar
    30     8    10    1
@<TRIPOS>MOLECULE
*****
 28 30 0 0 0
SMALL
GASTEIGER

@<TRIPOS>ATOM
      1 N         140.1440  142.4996  161.2071 N.3     1  UNL1       -0.2682
      2 C         141.4620  141.8111  161.4048 C.3     1  UNL1        0.0897
      3 C         141.5701  140.6578  162.3578 C.3     1  UNL1        0.0899
      4 N         140.3604  140.1930  163.1131 N.3     1  UNL1       -0.2665
      5 C         139.0425  140.8815  162.9155 C.3     1  UNL1        0.0899
      6 C         138.9343  142.0348  161.9624 C.3     1  UNL1        0.0897
      7 C         140.0359  143.6529  160.2541 C.3     1  UNL1        0.1056
      8 O         141.8200  145.5089  159.9052 O.3     1  UNL1       -0.3793
      9 C         140.6110  144.9879  160.6241 C.3     1  UNL1        0.1700
     10 H         142.0600  146.3777  160.2637 H       1  UNL1        0.2106
     11 C         139.9772  145.8020  161.7130 C.3     1  UNL1        0.2358
     12 O         140.7621  146.1500  162.9429 O.3     1  UNL1       -0.4728
     13 C         141.5322  145.0859  163.6673 C.ar    1  UNL1        0.1388
     14 C         140.8053  144.0563  164.4805 C.ar    1  UNL1        0.0392
     15 C         141.5753  142.9922  165.2049 C.ar    1  UNL1        0.0327
     16 C         143.0723  142.9578  165.1160 C.ar    1  UNL1        0.1403
     17 F         143.8424  141.8937  165.8404 F       1  UNL1       -0.2042
     18 C         143.7992  143.9874  164.3027 C.ar    1  UNL1        0.0327
     19 C         143.0291  145.0515  163.5784 C.ar    1  UNL1        0.0392
     20 C         140.4686  139.0397  164.0661 C.3     1  UNL1        0.0992
     21 C         141.0096  139.2570  165.4482 C.ar    1  UNL1       -0.0052
     22 C         142.4115  138.8386  165.7792 C.ar    1  UNL1       -0.0020
     23 C         142.9525  139.0558  167.1612 C.ar    1  UNL1        0.0120
     24 C         142.0916  139.6916  168.2123 C.ar    1  UNL1        0.0682
     25 CL        142.6327  139.9088  169.5944 Cl      1  UNL1       -0.0814
     26 C         140.6897  140.1100  167.8813 C.ar    1  UNL1        0.0679
     27 CL        139.8288  140.7457  168.9324 Cl      1  UNL1       -0.0814
     28 C         140.1487  139.8927  166.4992 C.ar    1  UNL1        0.0093
@<TRIPOS>BOND
     1     9     8    1
     2     9    11    1
     3    11    12    1
     4    12    13    1
     5    13    14   ar
     6    14    15   ar
     7    15    16   ar
     8    16    17    1
     9    16    18   ar
    10    18    19   ar
    11     9     7    1
    12     7     1    1
    13     1     2    1
    14     2     3    1
    15     3     4    1
    16     4    20    1
    17    20    21    1
    18    21    22   ar
    19    22    23   ar
    20    23    24   ar
    21    24    25    1
    22    24    26   ar
    23    26    27    1
    24    26    28   ar
    25     4     5    1
    26     5     6    1
    27    19    13   ar
    28     6     1    1
    29    28    21   ar
    30     8    10    1
@<TRIPOS>MOLECULE
*****
 28 30 0 0 0
SMALL
GASTEIGER

@<TRIPOS>ATOM
      1 N         139.2198  142.3042  160.9919 N.3     1  UNL1       -0.2682
      2 C         140.5624  141.7403  161.3520 C.3     1  UNL1        0.0897
      3 C         141.2186  142.1320  162.6427 C.3     1  UNL1        0.0899
      4 N         140.5324  143.0876  163.5732 N.3     1  UNL1       -0.2665
      5 C         139.1899  143.6514  163.2132 C.3     1  UNL1        0.0899
      6 C         138.5336  143.2598  161.9224 C.3     1  UNL1        0.0897
      7 C         138.5635  141.9125  159.7012 C.3     1  UNL1        0.1056
      8 O         138.0417  139.8875  158.1594 O.3     1  UNL1       -0.3793
      9 C         138.0376  140.5195  159.5198 C.3     1  UNL1        0.1700
     10 H         137.6709  138.9931  158.2173 H       1  UNL1        0.2106
     11 C         137.5076  139.7584  160.6988 C.3     1  UNL1        0.2358
     12 O         138.3983  138.8037  161.4370 O.3     1  UNL1       -0.4728
     13 C         138.4758  138.8553  162.9342 C.ar    1  UNL1        0.1388
     14 C         138.1094  140.1152  163.6611 C.ar    1  UNL1        0.0392
     15 C         138.1870  140.1668  165.1582 C.ar    1  UNL1        0.0327
     16 C         138.6309  138.9586  165.9283 C.ar    1  UNL1        0.1403
     17 F         138.7084  139.0102  167.4255 F       1  UNL1       -0.2042
     18 C         138.9972  137.6987  165.2014 C.ar    1  UNL1        0.0327
     19 C         138.9197  137.6471  163.7043 C.ar    1  UNL1        0.0392
     20 C         141.1887  143.4792  164.8639 C.3     1  UNL1        0.0992
     21 C         141.2015  142.5227  166.0193 C.ar    1  UNL1       -0.0052
     22 C         140.4390  142.8468  167.2698 C.ar    1  UNL1       -0.0020
     23 C         140.4518  141.8904  168.4252 C.ar    1  UNL1        0.0120
     24 C         141.2271  140.6097  168.3302 C.ar    1  UNL1        0.0682
     25 CL        141.2400  139.6533  169.4856 Cl      1  UNL1       -0.0814
     26 C         141.9896  140.2856  167.0797 C.ar    1  UNL1        0.0679
     27 CL        142.7649  139.0051  166.9847 Cl      1  UNL1       -0.0814
     28 C         141.9768  141.2422  165.9243 C.ar    1  UNL1        0.0093
@<TRIPOS>BOND
     1     9     8    1
     2     9    11    1
     3    11    12    1
     4    12    13    1
     5    13    14   ar
     6    14    15   ar
     7    15    16   ar
     8    16    17    1
     9    16    18   ar
    10    18    19   ar
    11     9     7    1
    12     7     1    1
    13     1     2    1
    14     2     3    1
    15     3     4    1
    16     4    20    1
    17    20    21    1
    18    21    22   ar
    19    22    23   ar
    20    23    24   ar
    21    24    25    1
    22    24    26   ar
    23    26    27    1
    24    26    28   ar
    25     4     5    1
    26     5     6    1
    27    19    13   ar
    28     6     1    1
    29    28    21   ar
    30     8    10    1
@<TRIPOS>MOLECULE
*****
 28 30 0 0 0
SMALL
GASTEIGER

@<TRIPOS>ATOM
      1 N         140.3022  139.2659  159.9823 N.3     1  UNL1       -0.2682
      2 C         139.2964  138.3406  160.6006 C.3     1  UNL1        0.0897
      3 C         138.4989  138.7865  161.7902 C.3     1  UNL1        0.0899
      4 N         138.7071  140.1577  162.3615 N.3     1  UNL1       -0.2665
      5 C         139.7129  141.0830  161.7433 C.3     1  UNL1        0.0899
      6 C         140.5105  140.6371  160.5537 C.3     1  UNL1        0.0897
      7 C         141.0997  138.8200  158.7928 C.3     1  UNL1        0.1056
      8 O         143.1499  137.5721  157.7980 O.3     1  UNL1       -0.3793
      9 C         142.3560  138.0239  158.9878 C.3     1  UNL1        0.1700
     10 H         143.9260  137.0734  158.0976 H       1  UNL1        0.2106
     11 C         142.8184  137.6796  160.3726 C.3     1  UNL1        0.2358
     12 O         143.4825  138.7220  161.2224 O.3     1  UNL1       -0.4728
     13 C         143.2384  138.7505  162.7022 C.ar    1  UNL1        0.1388
     14 C         141.9513  138.2195  163.2603 C.ar    1  UNL1        0.0392
     15 C         141.7072  138.2480  164.7400 C.ar    1  UNL1        0.0327
     16 C         142.7502  138.8074  165.6616 C.ar    1  UNL1        0.1403
     17 F         142.5060  138.8358  167.1414 F       1  UNL1       -0.2042
     18 C         144.0372  139.3383  165.1035 C.ar    1  UNL1        0.0327
     19 C         144.2813  139.3099  163.6238 C.ar    1  UNL1        0.0392
     20 C         137.9096  140.6037  163.5510 C.3     1  UNL1        0.0992
     21 C         138.4723  140.4470  164.9327 C.ar    1  UNL1       -0.0052
     22 C         138.0327  139.3018  165.7961 C.ar    1  UNL1       -0.0020
     23 C         138.5953  139.1452  167.1777 C.ar    1  UNL1        0.0120
     24 C         139.5975  140.1337  167.6960 C.ar    1  UNL1        0.0682
     25 CL        140.1600  139.9770  169.0777 Cl      1  UNL1       -0.0814
     26 C         140.0370  141.2788  166.8327 C.ar    1  UNL1        0.0679
     27 CL        141.0391  142.2673  167.3509 Cl      1  UNL1       -0.0814
     28 C         139.4744  141.4355  165.4510 C.ar    1  UNL1        0.0093
@<TRIPOS>BOND
     1     9     8    1
     2     9    11    1
     3    11    12    1
     4    12    13    1
     5    13    14   ar
     6    14    15   ar
     7    15    16   ar
     8    16    17    1
     9    16    18   ar
    10    18    19   ar
    11     9     7    1
    12     7     1    1
    13     1     2    1
    14     2     3    1
    15     3     4    1
    16     4    20    1
    17    20    21    1
    18    21    22   ar
    19    22    23   ar
    20    23    24   ar
    21    24    25    1
    22    24    26   ar
    23    26    27    1
    24    26    28   ar
    25     4     5    1
    26     5     6    1
    27    19    13   ar
    28     6     1    1
    29    28    21   ar
    30     8    10    1
@<TRIPOS>MOLECULE
*****
 28 30 0 0 0
SMALL
GASTEIGER

@<TRIPOS>ATOM
      1 N         141.0197  142.2780  162.1006 N.3     1  UNL1       -0.2682
      2 C         141.3007  140.8201  162.3143 C.3     1  UNL1        0.0897
      3 C         141.9589  140.3610  163.5815 C.3     1  UNL1        0.0899
      4 N         142.3362  141.3597  164.6351 N.3     1  UNL1       -0.2665
      5 C         142.0553  142.8176  164.4215 C.3     1  UNL1        0.0899
      6 C         141.3970  143.2768  163.1542 C.3     1  UNL1        0.0897
      7 C         140.3615  142.7371  160.8334 C.3     1  UNL1        0.1056
      8 O         138.1790  142.8643  159.4296 O.3     1  UNL1       -0.3793
      9 C         138.8674  142.8490  160.7623 C.3     1  UNL1        0.1700
     10 H         137.2211  142.9410  159.5614 H       1  UNL1        0.2106
     11 C         138.0616  142.9456  162.0238 C.3     1  UNL1        0.2358
     12 O         137.1700  141.8109  162.4329 O.3     1  UNL1       -0.4728
     13 C         137.7506  140.6115  163.1218 C.ar    1  UNL1        0.1388
     14 C         138.0321  139.3617  162.3417 C.ar    1  UNL1        0.0392
     15 C         138.6126  138.1624  163.0305 C.ar    1  UNL1        0.0327
     16 C         138.9117  138.2129  164.4995 C.ar    1  UNL1        0.1403
     17 F         139.4923  137.0135  165.1884 F       1  UNL1       -0.2042
     18 C         138.6302  139.4627  165.2797 C.ar    1  UNL1        0.0327
     19 C         138.0496  140.6620  164.5908 C.ar    1  UNL1        0.0392
     20 C         142.9944  140.9007  165.9024 C.3     1  UNL1        0.0992
     21 C         142.3822  141.2369  167.2299 C.ar    1  UNL1       -0.0052
     22 C         143.0624  142.2127  168.1438 C.ar    1  UNL1       -0.0020
     23 C         142.4504  142.5490  169.4713 C.ar    1  UNL1        0.0120
     24 C         141.1581  141.9095  169.8850 C.ar    1  UNL1        0.0682
     25 CL        140.5460  142.2458  171.2124 Cl      1  UNL1       -0.0814
     26 C         140.4779  140.9337  168.9711 C.ar    1  UNL1        0.0679
     27 CL        139.1856  140.2942  169.3846 Cl      1  UNL1       -0.0814
     28 C         141.0900  140.5974  167.6435 C.ar    1  UNL1        0.0093
@<TRIPOS>BOND
     1     9     8    1
     2     9    11    1
     3    11    12    1
     4    12    13    1
     5    13    14   ar
     6    14    15   ar
     7    15    16   ar
     8    16    17    1
     9    16    18   ar
    10    18    19   ar
    11     9     7    1
    12     7     1    1
    13     1     2    1
    14     2     3    1
    15     3     4    1
    16     4    20    1
    17    20    21    1
    18    21    22   ar
    19    22    23   ar
    20    23    24   ar
    21    24    25    1
    22    24    26   ar
    23    26    27    1
    24    26    28   ar
    25     4     5    1
    26     5     6    1
    27    19    13   ar
    28     6     1    1
    29    28    21   ar
    30     8    10    1
@<TRIPOS>MOLECULE
*****
 28 30 0 0 0
SMALL
GASTEIGER

@<TRIPOS>ATOM
      1 N         140.9976  142.0044  162.2529 N.3     1  UNL1       -0.2682
      2 C         140.4751  140.6145  162.0397 C.3     1  UNL1        0.0897
      3 C         140.5149  139.6182  163.1602 C.3     1  UNL1        0.0899
      4 N         141.0772  140.0116  164.4940 N.3     1  UNL1       -0.2665
      5 C         141.5997  141.4013  164.7073 C.3     1  UNL1        0.0899
      6 C         141.5598  142.3978  163.5868 C.3     1  UNL1        0.0897
      7 C         140.9577  143.0007  161.1324 C.3     1  UNL1        0.1056
      8 O         142.4217  145.1467  161.1711 O.3     1  UNL1       -0.3793
      9 C         142.2064  143.7288  160.7315 C.3     1  UNL1        0.1700
     10 H         143.2714  145.4658  160.8289 H       1  UNL1        0.2106
     11 C         143.2397  143.0390  159.8910 C.3     1  UNL1        0.2358
     12 O         144.5766  142.6956  160.4779 O.3     1  UNL1       -0.4728
     13 C         144.6656  141.7492  161.6383 C.ar    1  UNL1        0.1388
     14 C         144.1292  140.3541  161.5112 C.ar    1  UNL1        0.0392
     15 C         144.2182  139.4078  162.6715 C.ar    1  UNL1        0.0327
     16 C         144.8434  139.8565  163.9590 C.ar    1  UNL1        0.1403
     17 F         144.9324  138.9100  165.1194 F       1  UNL1       -0.2042
     18 C         145.3798  141.2515  164.0862 C.ar    1  UNL1        0.0327
     19 C         145.2908  142.1978  162.9259 C.ar    1  UNL1        0.0392
     20 C         141.1170  139.0152  165.6145 C.3     1  UNL1        0.0992
     21 C         141.2404  139.4865  167.0333 C.ar    1  UNL1       -0.0052
     22 C         142.5892  139.5567  167.6857 C.ar    1  UNL1       -0.0020
     23 C         142.7126  140.0280  169.1043 C.ar    1  UNL1        0.0120
     24 C         141.4871  140.4291  169.8707 C.ar    1  UNL1        0.0682
     25 CL        141.6104  140.9004  171.2893 Cl      1  UNL1       -0.0814
     26 C         140.1382  140.3589  169.2183 C.ar    1  UNL1        0.0679
     27 CL        138.9127  140.7601  169.9845 Cl      1  UNL1       -0.0814
     28 C         140.0149  139.8876  167.7995 C.ar    1  UNL1        0.0093
@<TRIPOS>BOND
     1     9     8    1
     2     9    11    1
     3    11    12    1
     4    12    13    1
     5    13    14   ar
     6    14    15   ar
     7    15    16   ar
     8    16    17    1
     9    16    18   ar
    10    18    19   ar
    11     9     7    1
    12     7     1    1
    13     1     2    1
    14     2     3    1
    15     3     4    1
    16     4    20    1
    17    20    21    1
    18    21    22   ar
    19    22    23   ar
    20    23    24   ar
    21    24    25    1
    22    24    26   ar
    23    26    27    1
    24    26    28   ar
    25     4     5    1
    26     5     6    1
    27    19    13   ar
    28     6     1    1
    29    28    21   ar
    30     8    10    1
