@<TRIPOS>MOLECULE
*****
 35 39 0 0 0
SMALL
GASTEIGER

@<TRIPOS>ATOM
      1 C         139.2915  142.9179  161.3986 C.2     1  UNL1        0.2470
      2 O         138.9995  144.3637  161.6711 O.2     1  UNL1       -0.2820
      3 C         138.5012  141.8491  162.0938 C.2     1  UNL1        0.2880
      4 O         137.4253  141.1110  161.3540 O.2     1  UNL1       -0.2664
      5 N         138.7870  141.5186  163.5287 N.am    1  UNL1       -0.2700
      6 C         139.8630  142.2568  164.2685 C.3     1  UNL1        0.1153
      7 C         140.1487  141.9263  165.7035 C.3     1  UNL1        0.1152
      8 N         139.3584  140.8575  166.3987 N.am    1  UNL1       -0.2726
      9 C         139.6440  140.5269  167.8336 C.2     1  UNL1        0.2491
     10 O         138.8537  139.4582  168.5288 O.2     1  UNL1       -0.2699
     11 C         138.2824  140.1193  165.6588 C.3     1  UNL1        0.1152
     12 C         137.9967  140.4499  164.2239 C.3     1  UNL1        0.1153
     13 C         140.7200  141.2651  168.5734 C.ar    1  UNL1        0.0536
     14 C         140.4119  142.5762  169.2339 C.ar    1  UNL1        0.0045
     15 C         141.4880  143.3144  169.9738 C.ar    1  UNL1        0.0001
     16 C         142.8720  142.7415  170.0531 C.ar    1  UNL1        0.0000
     17 C         143.1800  141.4306  169.3926 C.ar    1  UNL1        0.0001
     18 C         142.1041  140.6924  168.6528 C.ar    1  UNL1        0.0045
     19 C         142.6358  143.2867  161.7870 C.2     1  UNL1        0.1448
     20 C         144.1330  143.3393  161.7131 C.2     1  UNL1        0.1335
     21 N         144.8423  142.8270  160.4949 N.2     1  UNL1       -0.2211
     22 C         144.0544  142.2619  159.3503 C.2     1  UNL1        0.1799
     23 C         142.5572  142.2093  159.4241 C.2     1  UNL1        0.1058
     24 N         141.5217  141.7118  158.4597 N.2     1  UNL1       -0.2445
     25 C         140.1723  141.9167  159.0820 C.2     1  UNL1        0.0984
     26 C         140.3739  142.5408  160.4310 C.2     1  UNL1        0.0531
     27 C         141.8479  142.7217  160.6424 C.3     1  UNL1        0.1284
     28 N         144.7639  141.7496  158.1319 N.ar    1  UNL1       -0.1894
     29 C         144.4736  140.4623  157.4187 C.ar    1  UNL1        0.2027
     30 N         145.4185  140.3518  156.2589 N.ar    1  UNL1       -0.2072
     31 C         146.2926  141.5707  156.2555 C.ar    1  UNL1        0.1613
     32 C         147.3805  141.8728  155.2678 C.3     1  UNL1        0.0756
     33 N         145.8881  142.4346  157.4130 N.ar    1  UNL1       -0.1474
     34 C         142.2435  145.1645  163.5390 C.3     1  UNL1        0.2521
     35 O         141.9265  143.7990  163.0053 O.2     1  UNL1       -0.4734
@<TRIPOS>BOND
     1    34    35    1
     2    35    19    1
     3    19    20    2
     4    20    21    1
     5    21    22    2
     6    22    28    1
     7    28    29   ar
     8    29    30   ar
     9    30    31   ar
    10    31    32    1
    11    31    33   ar
    12    22    23    1
    13    23    24    2
    14    24    25    1
    15    25    26    2
    16    26     1    1
    17     1     2    2
    18     1     3    1
    19     3     4    2
    20     3     5   am
    21     5     6    1
    22     6     7    1
    23     7     8    1
    24     8     9   am
    25     9    10    2
    26     9    13    1
    27    13    14   ar
    28    14    15   ar
    29    15    16   ar
    30    16    17   ar
    31    17    18   ar
    32     8    11    1
    33    11    12    1
    34    26    27    1
    35    27    19    1
    36    33    28   ar
    37    27    23    1
    38    12     5    1
    39    18    13   ar
@<TRIPOS>MOLECULE
*****
 35 39 0 0 0
SMALL
GASTEIGER

@<TRIPOS>ATOM
      1 C         140.8208  138.8285  162.0799 C.2     1  UNL1        0.2470
      2 O         142.0922  138.0331  162.1109 O.2     1  UNL1       -0.2820
      3 C         139.6710  138.4395  162.9612 C.2     1  UNL1        0.2880
      4 O         138.5526  137.6054  162.4104 O.2     1  UNL1       -0.2664
      5 N         139.6396  138.8846  164.3932 N.am    1  UNL1       -0.2700
      6 C         140.7581  139.7188  164.9440 C.3     1  UNL1        0.1153
      7 C         140.7267  140.1639  166.3761 C.3     1  UNL1        0.1152
      8 N         139.5769  139.7749  167.2574 N.am    1  UNL1       -0.2726
      9 C         139.5455  140.2200  168.6895 C.2     1  UNL1        0.2491
     10 O         138.3957  139.8310  169.5708 O.2     1  UNL1       -0.2699
     11 C         138.4585  138.9408  166.7066 C.3     1  UNL1        0.1152
     12 C         138.4899  138.4957  165.2745 C.3     1  UNL1        0.1153
     13 C         140.6639  141.0541  169.2403 C.ar    1  UNL1        0.0536
     14 C         140.4804  142.5324  169.4166 C.ar    1  UNL1        0.0045
     15 C         141.5989  143.3665  169.9675 C.ar    1  UNL1        0.0001
     16 C         142.9007  142.7224  170.3420 C.ar    1  UNL1        0.0000
     17 C         143.0842  141.2442  170.1656 C.ar    1  UNL1        0.0001
     18 C         141.9658  140.4101  169.6148 C.ar    1  UNL1        0.0045
     19 C         142.7766  141.5926  162.0044 C.2     1  UNL1        0.1448
     20 C         143.4813  142.8957  161.7695 C.2     1  UNL1        0.1335
     21 N         142.9985  143.8267  160.6972 N.2     1  UNL1       -0.2211
     22 C         141.8109  143.4547  159.8597 C.2     1  UNL1        0.1799
     23 C         141.1062  142.1516  160.0946 C.2     1  UNL1        0.1058
     24 N         139.9180  141.5195  159.4323 N.2     1  UNL1       -0.2445
     25 C         139.6665  140.1977  160.0954 C.2     1  UNL1        0.0984
     26 C         140.6992  140.0129  161.1675 C.2     1  UNL1        0.0531
     27 C         141.5891  141.2205  161.1670 C.3     1  UNL1        0.1284
     28 N         141.3282  144.3859  158.7873 N.ar    1  UNL1       -0.1894
     29 C         140.3282  145.4901  158.9629 C.ar    1  UNL1        0.2027
     30 N         140.1427  146.1629  157.6352 N.ar    1  UNL1       -0.2072
     31 C         141.0280  145.4744  156.6390 C.ar    1  UNL1        0.1613
     32 C         141.1578  145.8230  155.1858 C.3     1  UNL1        0.0756
     33 N         141.7606  144.3762  157.3510 N.ar    1  UNL1       -0.1474
     34 C         144.7047  140.2634  163.1296 C.3     1  UNL1        0.2521
     35 O         143.2594  140.6615  163.0768 O.2     1  UNL1       -0.4734
@<TRIPOS>BOND
     1    34    35    1
     2    35    19    1
     3    19    20    2
     4    20    21    1
     5    21    22    2
     6    22    28    1
     7    28    29   ar
     8    29    30   ar
     9    30    31   ar
    10    31    32    1
    11    31    33   ar
    12    22    23    1
    13    23    24    2
    14    24    25    1
    15    25    26    2
    16    26     1    1
    17     1     2    2
    18     1     3    1
    19     3     4    2
    20     3     5   am
    21     5     6    1
    22     6     7    1
    23     7     8    1
    24     8     9   am
    25     9    10    2
    26     9    13    1
    27    13    14   ar
    28    14    15   ar
    29    15    16   ar
    30    16    17   ar
    31    17    18   ar
    32     8    11    1
    33    11    12    1
    34    26    27    1
    35    27    19    1
    36    33    28   ar
    37    27    23    1
    38    12     5    1
    39    18    13   ar
@<TRIPOS>MOLECULE
*****
 35 39 0 0 0
SMALL
GASTEIGER

@<TRIPOS>ATOM
      1 C         140.0068  140.2377  161.7026 C.2     1  UNL1        0.2470
      2 O         140.2318  141.7202  161.7437 O.2     1  UNL1       -0.2820
      3 C         139.0232  139.6021  162.6399 C.2     1  UNL1        0.2880
      4 O         137.8868  138.7883  162.0957 O.2     1  UNL1       -0.2664
      5 N         139.1762  139.7803  164.1213 N.am    1  UNL1       -0.2700
      6 C         140.3127  140.5941  164.6656 C.3     1  UNL1        0.1153
      7 C         140.4656  140.7723  166.1471 C.3     1  UNL1        0.1152
      8 N         139.4821  140.1366  167.0844 N.am    1  UNL1       -0.2726
      9 C         139.6350  140.3148  168.5659 C.2     1  UNL1        0.2491
     10 O         138.6514  139.6792  169.5033 O.2     1  UNL1       -0.2699
     11 C         138.3456  139.3228  166.5402 C.3     1  UNL1        0.1152
     12 C         138.1927  139.1447  165.0587 C.3     1  UNL1        0.1153
     13 C         140.7714  141.1286  169.1101 C.ar    1  UNL1        0.0536
     14 C         140.5593  142.5709  169.4636 C.ar    1  UNL1        0.0045
     15 C         141.6959  143.3847  170.0078 C.ar    1  UNL1        0.0001
     16 C         143.0445  142.7562  170.1985 C.ar    1  UNL1        0.0000
     17 C         143.2565  141.3141  169.8450 C.ar    1  UNL1        0.0001
     18 C         142.1201  140.5003  169.3008 C.ar    1  UNL1        0.0045
     19 C         139.3505  139.7871  158.4106 C.2     1  UNL1        0.1448
     20 C         139.2767  139.4266  156.9565 C.2     1  UNL1        0.1335
     21 N         140.2926  138.4971  156.3617 N.2     1  UNL1       -0.2211
     22 C         141.3826  137.9281  157.2210 C.2     1  UNL1        0.1799
     23 C         141.4564  138.2887  158.6752 C.2     1  UNL1        0.1058
     24 N         142.4094  137.8870  159.7617 N.2     1  UNL1       -0.2445
     25 C         141.9823  138.5682  161.0280 C.2     1  UNL1        0.0984
     26 C         140.7654  139.3909  160.7241 C.2     1  UNL1        0.0531
     27 C         140.4404  139.2182  159.2700 C.3     1  UNL1        0.1284
     28 N         142.3986  136.9986  156.6262 N.ar    1  UNL1       -0.1894
     29 C         143.5834  137.4004  155.7986 C.ar    1  UNL1        0.2027
     30 N         144.3251  136.1542  155.4154 N.ar    1  UNL1       -0.2072
     31 C         143.5987  134.9823  156.0061 C.ar    1  UNL1        0.1613
     32 C         143.9936  133.5414  155.8721 C.3     1  UNL1        0.0756
     33 N         142.4080  135.5041  156.7544 N.ar    1  UNL1       -0.1474
     34 C         138.3987  142.1859  158.7103 C.3     1  UNL1        0.2521
     35 O         138.3345  140.7166  159.0054 O.2     1  UNL1       -0.4734
@<TRIPOS>BOND
     1    34    35    1
     2    35    19    1
     3    19    20    2
     4    20    21    1
     5    21    22    2
     6    22    28    1
     7    28    29   ar
     8    29    30   ar
     9    30    31   ar
    10    31    32    1
    11    31    33   ar
    12    22    23    1
    13    23    24    2
    14    24    25    1
    15    25    26    2
    16    26     1    1
    17     1     2    2
    18     1     3    1
    19     3     4    2
    20     3     5   am
    21     5     6    1
    22     6     7    1
    23     7     8    1
    24     8     9   am
    25     9    10    2
    26     9    13    1
    27    13    14   ar
    28    14    15   ar
    29    15    16   ar
    30    16    17   ar
    31    17    18   ar
    32     8    11    1
    33    11    12    1
    34    26    27    1
    35    27    19    1
    36    33    28   ar
    37    27    23    1
    38    12     5    1
    39    18    13   ar
@<TRIPOS>MOLECULE
*****
 35 39 0 0 0
SMALL
GASTEIGER

@<TRIPOS>ATOM
      1 C         138.9885  140.4644  161.8321 C.2     1  UNL1        0.2470
      2 O         137.6901  140.6152  162.5678 O.2     1  UNL1       -0.2820
      3 C         139.9452  139.3743  162.2149 C.2     1  UNL1        0.2880
      4 O         140.2578  138.2753  161.2431 O.2     1  UNL1       -0.2664
      5 N         140.5893  139.3833  163.5695 N.am    1  UNL1       -0.2700
      6 C         140.2767  140.4824  164.5414 C.3     1  UNL1        0.1153
      7 C         140.9208  140.4913  165.8961 C.3     1  UNL1        0.1152
      8 N         141.8775  139.4013  166.2789 N.am    1  UNL1       -0.2726
      9 C         142.5217  139.4102  167.6335 C.2     1  UNL1        0.2491
     10 O         143.4784  138.3202  168.0163 O.2     1  UNL1       -0.2699
     11 C         142.1901  138.3023  165.3071 C.3     1  UNL1        0.1152
     12 C         141.5460  138.2933  163.9524 C.3     1  UNL1        0.1153
     13 C         142.2091  140.5092  168.6053 C.ar    1  UNL1        0.0536
     14 C         143.1115  141.7034  168.7027 C.ar    1  UNL1        0.0045
     15 C         142.7989  142.8025  169.6746 C.ar    1  UNL1        0.0001
     16 C         141.5839  142.7073  170.5490 C.ar    1  UNL1        0.0000
     17 C         140.6815  141.5132  170.4516 C.ar    1  UNL1        0.0001
     18 C         140.9941  140.4141  169.4798 C.ar    1  UNL1        0.0045
     19 C         139.4605  143.8133  162.0127 C.2     1  UNL1        0.1448
     20 C         139.7146  145.2799  161.8270 C.2     1  UNL1        0.1335
     21 N         140.0395  145.8181  160.4652 N.2     1  UNL1       -0.2211
     22 C         140.1104  144.8898  159.2890 C.2     1  UNL1        0.1799
     23 C         139.8563  143.4233  159.4748 C.2     1  UNL1        0.1058
     24 N         139.8561  142.2746  158.5101 N.2     1  UNL1       -0.2445
     25 C         139.5310  141.0264  159.2758 C.2     1  UNL1        0.0984
     26 C         139.3303  141.4036  160.7137 C.2     1  UNL1        0.0531
     27 C         139.5313  142.8850  160.8366 C.3     1  UNL1        0.1284
     28 N         140.4354  145.4282  157.9271 N.ar    1  UNL1       -0.1894
     29 C         141.6513  145.0950  157.1144 C.ar    1  UNL1        0.2027
     30 N         141.5688  145.8552  155.8239 N.ar    1  UNL1       -0.2072
     31 C         140.3020  146.6582  155.8392 C.ar    1  UNL1        0.1613
     32 C         139.8202  147.5659  154.7464 C.3     1  UNL1        0.0756
     33 N         139.6015  146.3944  157.1390 N.ar    1  UNL1       -0.1474
     34 C         137.9605  143.8159  164.1341 C.3     1  UNL1        0.2521
     35 O         139.1355  143.2750  163.3746 O.2     1  UNL1       -0.4734
@<TRIPOS>BOND
     1    34    35    1
     2    35    19    1
     3    19    20    2
     4    20    21    1
     5    21    22    2
     6    22    28    1
     7    28    29   ar
     8    29    30   ar
     9    30    31   ar
    10    31    32    1
    11    31    33   ar
    12    22    23    1
    13    23    24    2
    14    24    25    1
    15    25    26    2
    16    26     1    1
    17     1     2    2
    18     1     3    1
    19     3     4    2
    20     3     5   am
    21     5     6    1
    22     6     7    1
    23     7     8    1
    24     8     9   am
    25     9    10    2
    26     9    13    1
    27    13    14   ar
    28    14    15   ar
    29    15    16   ar
    30    16    17   ar
    31    17    18   ar
    32     8    11    1
    33    11    12    1
    34    26    27    1
    35    27    19    1
    36    33    28   ar
    37    27    23    1
    38    12     5    1
    39    18    13   ar
@<TRIPOS>MOLECULE
*****
 35 39 0 0 0
SMALL
GASTEIGER

@<TRIPOS>ATOM
      1 C         140.3847  140.1452  161.5976 C.2     1  UNL1        0.2470
      2 O         141.8476  139.8497  161.7476 O.2     1  UNL1       -0.2820
      3 C         139.3869  139.4639  162.4865 C.2     1  UNL1        0.2880
      4 O         138.3261  138.5873  161.8895 O.2     1  UNL1       -0.2664
      5 N         139.4497  139.6593  163.9723 N.am    1  UNL1       -0.2700
      6 C         140.5105  140.5360  164.5694 C.3     1  UNL1        0.1153
      7 C         140.5733  140.7313  166.0553 C.3     1  UNL1        0.1152
      8 N         139.5755  140.0500  166.9442 N.am    1  UNL1       -0.2726
      9 C         139.6383  140.2453  168.4301 C.2     1  UNL1        0.2491
     10 O         138.6404  139.5641  169.3190 O.2     1  UNL1       -0.2699
     11 C         138.5148  139.1734  166.3472 C.3     1  UNL1        0.1152
     12 C         138.4519  138.9781  164.8613 C.3     1  UNL1        0.1153
     13 C         140.6990  141.1220  169.0271 C.ar    1  UNL1        0.0536
     14 C         140.3954  142.5561  169.3449 C.ar    1  UNL1        0.0045
     15 C         141.4562  143.4328  169.9420 C.ar    1  UNL1        0.0001
     16 C         142.8205  142.8752  170.2211 C.ar    1  UNL1        0.0000
     17 C         143.1240  141.4412  169.9032 C.ar    1  UNL1        0.0001
     18 C         142.0633  140.5645  169.3062 C.ar    1  UNL1        0.0045
     19 C         140.3758  139.7427  158.2348 C.2     1  UNL1        0.1448
     20 C         140.2671  139.8134  156.7404 C.2     1  UNL1        0.1335
     21 N         139.7154  141.0450  156.0859 N.2     1  UNL1       -0.2211
     22 C         139.2724  142.2063  156.9258 C.2     1  UNL1        0.1799
     23 C         139.3811  142.1357  158.4201 C.2     1  UNL1        0.1058
     24 N         139.0270  143.1152  159.4996 N.2     1  UNL1       -0.2445
     25 C         139.3599  142.4888  160.8212 C.2     1  UNL1        0.0984
     26 C         139.9197  141.1221  160.5586 C.2     1  UNL1        0.0531
     27 C         139.9328  140.9039  159.0746 C.3     1  UNL1        0.1284
     28 N         138.7207  143.4381  156.2712 N.ar    1  UNL1       -0.1894
     29 C         137.4057  143.5435  155.5572 C.ar    1  UNL1        0.2027
     30 N         137.2595  144.9512  155.0605 N.ar    1  UNL1       -0.2072
     31 C         138.4842  145.7159  155.4674 C.ar    1  UNL1        0.1613
     32 C         138.7578  147.1619  155.1771 C.3     1  UNL1        0.0756
     33 N         139.3872  144.7807  156.2157 N.ar    1  UNL1       -0.1474
     34 C         142.3012  138.0244  158.5344 C.3     1  UNL1        0.2521
     35 O         140.9275  138.5109  158.8892 O.2     1  UNL1       -0.4734
@<TRIPOS>BOND
     1    34    35    1
     2    35    19    1
     3    19    20    2
     4    20    21    1
     5    21    22    2
     6    22    28    1
     7    28    29   ar
     8    29    30   ar
     9    30    31   ar
    10    31    32    1
    11    31    33   ar
    12    22    23    1
    13    23    24    2
    14    24    25    1
    15    25    26    2
    16    26     1    1
    17     1     2    2
    18     1     3    1
    19     3     4    2
    20     3     5   am
    21     5     6    1
    22     6     7    1
    23     7     8    1
    24     8     9   am
    25     9    10    2
    26     9    13    1
    27    13    14   ar
    28    14    15   ar
    29    15    16   ar
    30    16    17   ar
    31    17    18   ar
    32     8    11    1
    33    11    12    1
    34    26    27    1
    35    27    19    1
    36    33    28   ar
    37    27    23    1
    38    12     5    1
    39    18    13   ar
@<TRIPOS>MOLECULE
*****
 35 39 0 0 0
SMALL
GASTEIGER

@<TRIPOS>ATOM
      1 C         143.5101  142.6851  159.3205 C.2     1  UNL1        0.2470
      2 O         144.9308  142.8611  159.7683 O.2     1  UNL1       -0.2820
      3 C         142.4927  143.7463  159.6188 C.2     1  UNL1        0.2880
      4 O         142.3901  144.9558  158.7375 O.2     1  UNL1       -0.2664
      5 N         141.5781  143.5979  160.7983 N.am    1  UNL1       -0.2700
      6 C         141.6807  142.3884  161.6796 C.3     1  UNL1        0.1153
      7 C         140.7661  142.2401  162.8591 C.3     1  UNL1        0.1152
      8 N         139.7487  143.3012  163.1574 N.am    1  UNL1       -0.2726
      9 C         138.8340  143.1529  164.3370 C.2     1  UNL1        0.2491
     10 O         137.8167  144.2141  164.6353 O.2     1  UNL1       -0.2699
     11 C         139.6461  144.5107  162.2762 C.3     1  UNL1        0.1152
     12 C         140.5607  144.6590  161.0967 C.3     1  UNL1        0.1153
     13 C         138.9367  141.9435  165.2182 C.ar    1  UNL1        0.0536
     14 C         138.1065  140.7291  164.9248 C.ar    1  UNL1        0.0045
     15 C         138.2092  139.5195  165.8062 C.ar    1  UNL1        0.0001
     16 C         139.1420  139.5245  166.9808 C.ar    1  UNL1        0.0000
     17 C         139.9722  140.7388  167.2741 C.ar    1  UNL1        0.0001
     18 C         139.8695  141.9483  166.3929 C.ar    1  UNL1        0.0045
     19 C         143.7050  139.4738  160.3787 C.2     1  UNL1        0.1448
     20 C         143.6865  137.9912  160.6058 C.2     1  UNL1        0.1335
     21 N         143.1730  137.0747  159.5352 N.2     1  UNL1       -0.2211
     22 C         142.6778  137.6408  158.2373 C.2     1  UNL1        0.1799
     23 C         142.6962  139.1234  158.0102 C.2     1  UNL1        0.1058
     24 N         142.2757  139.9650  156.8419 N.2     1  UNL1       -0.2445
     25 C         142.5294  141.4017  157.1906 C.2     1  UNL1        0.0984
     26 C         143.1067  141.4480  158.5743 C.2     1  UNL1        0.0531
     27 C         143.2098  140.0398  159.0808 C.3     1  UNL1        0.1284
     28 N         142.1642  136.7242  157.1667 N.ar    1  UNL1       -0.1894
     29 C         140.9347  136.9412  156.3354 C.ar    1  UNL1        0.2027
     30 N         140.8007  135.7808  155.3944 N.ar    1  UNL1       -0.2072
     31 C         141.9474  134.8467  155.6441 C.ar    1  UNL1        0.1613
     32 C         142.2061  133.5561  154.9248 C.3     1  UNL1        0.0756
     33 N         142.7902  135.4297  156.7395 N.ar    1  UNL1       -0.1474
     34 C         144.2450  139.9339  162.8780 C.3     1  UNL1        0.2521
     35 O         144.2185  140.3902  161.4493 O.2     1  UNL1       -0.4734
@<TRIPOS>BOND
     1    34    35    1
     2    35    19    1
     3    19    20    2
     4    20    21    1
     5    21    22    2
     6    22    28    1
     7    28    29   ar
     8    29    30   ar
     9    30    31   ar
    10    31    32    1
    11    31    33   ar
    12    22    23    1
    13    23    24    2
    14    24    25    1
    15    25    26    2
    16    26     1    1
    17     1     2    2
    18     1     3    1
    19     3     4    2
    20     3     5   am
    21     5     6    1
    22     6     7    1
    23     7     8    1
    24     8     9   am
    25     9    10    2
    26     9    13    1
    27    13    14   ar
    28    14    15   ar
    29    15    16   ar
    30    16    17   ar
    31    17    18   ar
    32     8    11    1
    33    11    12    1
    34    26    27    1
    35    27    19    1
    36    33    28   ar
    37    27    23    1
    38    12     5    1
    39    18    13   ar
@<TRIPOS>MOLECULE
*****
 35 39 0 0 0
SMALL
GASTEIGER

@<TRIPOS>ATOM
      1 C         139.9776  144.3560  161.4303 C.2     1  UNL1        0.2470
      2 O         138.9316  145.0969  162.2094 O.2     1  UNL1       -0.2820
      3 C         141.3893  144.3006  161.9342 C.2     1  UNL1        0.2880
      4 O         142.5224  144.7006  161.0363 O.2     1  UNL1       -0.2664
      5 N         141.6679  143.8454  163.3359 N.am    1  UNL1       -0.2700
      6 C         140.5348  143.4454  164.2339 C.3     1  UNL1        0.1153
      7 C         140.8136  142.9901  165.6357 C.3     1  UNL1        0.1152
      8 N         142.2253  142.9347  166.1396 N.am    1  UNL1       -0.2726
      9 C         142.5040  142.4794  167.5414 C.2     1  UNL1        0.2491
     10 O         143.9158  142.4241  168.0453 O.2     1  UNL1       -0.2699
     11 C         143.3584  143.3347  165.2417 C.3     1  UNL1        0.1152
     12 C         143.0797  143.7900  163.8399 C.3     1  UNL1        0.1153
     13 C         141.3710  142.0795  168.4392 C.ar    1  UNL1        0.0536
     14 C         140.8500  143.0431  169.4640 C.ar    1  UNL1        0.0045
     15 C         139.7169  142.6431  170.3619 C.ar    1  UNL1        0.0001
     16 C         139.1048  141.2796  170.2350 C.ar    1  UNL1        0.0000
     17 C         139.6257  140.3161  169.2103 C.ar    1  UNL1        0.0001
     18 C         140.7588  140.7160  168.3125 C.ar    1  UNL1        0.0045
     19 C         138.3649  141.4023  161.0482 C.2     1  UNL1        0.1448
     20 C         137.6783  140.1412  160.6145 C.2     1  UNL1        0.1335
     21 N         137.5220  139.8365  159.1542 N.2     1  UNL1       -0.2211
     22 C         138.0523  140.7929  158.1275 C.2     1  UNL1        0.1799
     23 C         138.7389  142.0540  158.5612 C.2     1  UNL1        0.1058
     24 N         139.3588  143.1774  157.7842 N.2     1  UNL1       -0.2445
     25 C         139.8982  144.1765  158.7645 C.2     1  UNL1        0.0984
     26 C         139.6118  143.6705  160.1472 C.2     1  UNL1        0.0531
     27 C         138.8952  142.3587  160.0215 C.3     1  UNL1        0.1284
     28 N         137.8959  140.4881  156.6671 N.ar    1  UNL1       -0.1894
     29 C         139.0095  140.3409  155.6729 C.ar    1  UNL1        0.2027
     30 N         138.4002  140.0388  154.3359 N.ar    1  UNL1       -0.2072
     31 C         136.9102  139.9993  154.5038 C.ar    1  UNL1        0.1613
     32 C         135.9077  139.7295  153.4210 C.3     1  UNL1        0.0756
     33 N         136.5985  140.2770  155.9445 N.ar    1  UNL1       -0.1474
     34 C         137.3159  142.0316  163.3403 C.3     1  UNL1        0.2521
     35 O         138.5213  141.7071  162.5086 O.2     1  UNL1       -0.4734
@<TRIPOS>BOND
     1    34    35    1
     2    35    19    1
     3    19    20    2
     4    20    21    1
     5    21    22    2
     6    22    28    1
     7    28    29   ar
     8    29    30   ar
     9    30    31   ar
    10    31    32    1
    11    31    33   ar
    12    22    23    1
    13    23    24    2
    14    24    25    1
    15    25    26    2
    16    26     1    1
    17     1     2    2
    18     1     3    1
    19     3     4    2
    20     3     5   am
    21     5     6    1
    22     6     7    1
    23     7     8    1
    24     8     9   am
    25     9    10    2
    26     9    13    1
    27    13    14   ar
    28    14    15   ar
    29    15    16   ar
    30    16    17   ar
    31    17    18   ar
    32     8    11    1
    33    11    12    1
    34    26    27    1
    35    27    19    1
    36    33    28   ar
    37    27    23    1
    38    12     5    1
    39    18    13   ar
@<TRIPOS>MOLECULE
*****
 35 39 0 0 0
SMALL
GASTEIGER

@<TRIPOS>ATOM
      1 C         140.1423  140.8730  160.9836 C.2     1  UNL1        0.2470
      2 O         138.7881  140.8015  160.3424 O.2     1  UNL1       -0.2820
      3 C         141.3398  141.2579  160.1662 C.2     1  UNL1        0.2880
      4 O         141.9583  142.6140  160.3345 O.2     1  UNL1       -0.2664
      5 N         141.9186  140.2866  159.1807 N.am    1  UNL1       -0.2700
      6 C         141.3001  138.9304  159.0124 C.3     1  UNL1        0.1153
      7 C         141.8790  137.9591  158.0268 C.3     1  UNL1        0.1152
      8 N         143.0765  138.3439  157.2094 N.am    1  UNL1       -0.2726
      9 C         143.6554  137.3726  156.2238 C.2     1  UNL1        0.2491
     10 O         144.8529  137.7574  155.4065 O.2     1  UNL1       -0.2699
     11 C         143.6950  139.7000  157.3777 C.3     1  UNL1        0.1152
     12 C         143.1161  140.6713  158.3633 C.3     1  UNL1        0.1153
     13 C         143.0369  136.0165  156.0556 C.ar    1  UNL1        0.0536
     14 C         143.5078  134.8677  156.8973 C.ar    1  UNL1        0.0045
     15 C         142.8892  133.5115  156.7291 C.ar    1  UNL1        0.0001
     16 C         141.7998  133.3042  155.7190 C.ar    1  UNL1        0.0000
     17 C         141.3289  134.4529  154.8773 C.ar    1  UNL1        0.0001
     18 C         141.9474  135.8090  155.0456 C.ar    1  UNL1        0.0045
     19 C         139.8568  143.0038  163.6007 C.2     1  UNL1        0.1448
     20 C         139.7854  143.7305  164.9109 C.2     1  UNL1        0.1335
     21 N         140.0212  142.9894  166.1934 N.2     1  UNL1       -0.2211
     22 C         140.3284  141.5214  166.1659 C.2     1  UNL1        0.1799
     23 C         140.3998  140.7946  164.8556 C.2     1  UNL1        0.1058
     24 N         140.6805  139.3605  164.5174 N.2     1  UNL1       -0.2445
     25 C         140.6182  139.2153  163.0258 C.2     1  UNL1        0.0984
     26 C         140.2990  140.5597  162.4421 C.2     1  UNL1        0.0531
     27 C         140.1640  141.5358  163.5730 C.3     1  UNL1        0.1284
     28 N         140.5641  140.7802  167.4485 N.ar    1  UNL1       -0.1894
     29 C         139.5389  140.5026  168.5077 C.ar    1  UNL1        0.2027
     30 N         140.2077  139.7374  169.6109 N.ar    1  UNL1       -0.2072
     31 C         141.6463  139.5422  169.2336 C.ar    1  UNL1        0.1613
     32 C         142.6828  138.8279  170.0495 C.3     1  UNL1        0.0756
     33 N         141.8666  140.1867  167.8972 N.ar    1  UNL1       -0.1474
     34 C         139.4108  145.2300  162.3378 C.3     1  UNL1        0.2521
     35 O         139.6210  143.7450  162.3181 O.2     1  UNL1       -0.4734
@<TRIPOS>BOND
     1    34    35    1
     2    35    19    1
     3    19    20    2
     4    20    21    1
     5    21    22    2
     6    22    28    1
     7    28    29   ar
     8    29    30   ar
     9    30    31   ar
    10    31    32    1
    11    31    33   ar
    12    22    23    1
    13    23    24    2
    14    24    25    1
    15    25    26    2
    16    26     1    1
    17     1     2    2
    18     1     3    1
    19     3     4    2
    20     3     5   am
    21     5     6    1
    22     6     7    1
    23     7     8    1
    24     8     9   am
    25     9    10    2
    26     9    13    1
    27    13    14   ar
    28    14    15   ar
    29    15    16   ar
    30    16    17   ar
    31    17    18   ar
    32     8    11    1
    33    11    12    1
    34    26    27    1
    35    27    19    1
    36    33    28   ar
    37    27    23    1
    38    12     5    1
    39    18    13   ar
@<TRIPOS>MOLECULE
*****
 35 39 0 0 0
SMALL
GASTEIGER

@<TRIPOS>ATOM
      1 C         138.9131  144.1509  162.7865 C.2     1  UNL1        0.2470
      2 O         137.4727  144.1841  162.3694 O.2     1  UNL1       -0.2820
      3 C         139.9572  144.8035  161.9297 C.2     1  UNL1        0.2880
      4 O         140.3327  146.2364  162.1655 O.2     1  UNL1       -0.2664
      5 N         140.6258  144.0230  160.8372 N.am    1  UNL1       -0.2700
      6 C         140.2504  142.5900  160.6013 C.3     1  UNL1        0.1153
      7 C         140.9190  141.8095  159.5087 C.3     1  UNL1        0.1152
      8 N         141.9632  142.4620  158.6519 N.am    1  UNL1       -0.2726
      9 C         142.6318  141.6816  157.5593 C.2     1  UNL1        0.2491
     10 O         143.6759  142.3341  156.7025 O.2     1  UNL1       -0.2699
     11 C         142.3386  143.8950  158.8877 C.3     1  UNL1        0.1152
     12 C         141.6699  144.6754  159.9803 C.3     1  UNL1        0.1153
     13 C         142.2564  140.2487  157.3235 C.ar    1  UNL1        0.0536
     14 C         142.9732  139.1548  158.0582 C.ar    1  UNL1        0.0045
     15 C         142.5977  137.7218  157.8223 C.ar    1  UNL1        0.0001
     16 C         141.5054  137.3827  156.8518 C.ar    1  UNL1        0.0000
     17 C         140.7886  138.4764  156.1172 C.ar    1  UNL1        0.0001
     18 C         141.1641  139.9094  156.3530 C.ar    1  UNL1        0.0045
     19 C         138.2019  140.9792  163.7378 C.2     1  UNL1        0.1448
     20 C         138.0254  139.6364  164.3825 C.2     1  UNL1        0.1335
     21 N         138.6199  139.3691  165.7334 N.2     1  UNL1       -0.2211
     22 C         139.3909  140.4446  166.4397 C.2     1  UNL1        0.1799
     23 C         139.5674  141.7874  165.7950 C.2     1  UNL1        0.1058
     24 N         140.2714  143.0327  166.2463 N.2     1  UNL1       -0.2445
     25 C         140.1120  144.0696  165.1742 C.2     1  UNL1        0.0984
     26 C         139.3095  143.4652  164.0603 C.2     1  UNL1        0.0531
     27 C         138.9729  142.0547  164.4440 C.3     1  UNL1        0.1284
     28 N         139.9854  140.1773  167.7907 N.ar    1  UNL1       -0.1894
     29 C         139.2263  140.0466  169.0779 C.ar    1  UNL1        0.2027
     30 N         140.2152  139.7822  170.1744 N.ar    1  UNL1       -0.2072
     31 C         141.5854  139.7494  169.5648 C.ar    1  UNL1        0.1613
     32 C         142.8718  139.5139  170.2995 C.3     1  UNL1        0.0756
     33 N         141.4434  139.9936  168.0917 N.ar    1  UNL1       -0.1474
     34 C         137.5973  140.1673  161.3450 C.3     1  UNL1        0.2521
     35 O         137.6074  141.2465  162.3868 O.2     1  UNL1       -0.4734
@<TRIPOS>BOND
     1    34    35    1
     2    35    19    1
     3    19    20    2
     4    20    21    1
     5    21    22    2
     6    22    28    1
     7    28    29   ar
     8    29    30   ar
     9    30    31   ar
    10    31    32    1
    11    31    33   ar
    12    22    23    1
    13    23    24    2
    14    24    25    1
    15    25    26    2
    16    26     1    1
    17     1     2    2
    18     1     3    1
    19     3     4    2
    20     3     5   am
    21     5     6    1
    22     6     7    1
    23     7     8    1
    24     8     9   am
    25     9    10    2
    26     9    13    1
    27    13    14   ar
    28    14    15   ar
    29    15    16   ar
    30    16    17   ar
    31    17    18   ar
    32     8    11    1
    33    11    12    1
    34    26    27    1
    35    27    19    1
    36    33    28   ar
    37    27    23    1
    38    12     5    1
    39    18    13   ar
