@<TRIPOS>MOLECULE
*****
 34 38 0 0 0
SMALL
GASTEIGER

@<TRIPOS>ATOM
      1 C         142.0158  144.0889  161.3562 C.3     1  UNL1        0.0730
      2 N         143.1042  143.2067  161.8922 N.3     1  UNL1       -0.2726
      3 C         144.4038  142.8967  161.2104 C.3     1  UNL1        0.0721
      4 C         145.1867  141.9780  162.1009 C.3     1  UNL1        0.0190
      5 C         144.3710  141.7202  163.3330 C.3     1  UNL1        0.0201
      6 C         145.3680  140.8158  163.9948 C.3     1  UNL1        0.0061
      7 C         144.0684  141.1258  164.6766 C.3     1  UNL1        0.0237
      8 C         143.0838  142.4796  163.2040 C.3     1  UNL1        0.0724
      9 C         143.1433  140.9616  165.8459 C.ar    1  UNL1       -0.0225
     10 C         142.9927  142.0707  166.8446 C.ar    1  UNL1       -0.0043
     11 C         142.0677  141.9065  168.0139 C.ar    1  UNL1        0.0035
     12 C         141.2932  140.6333  168.1845 C.ar    1  UNL1        0.0714
     13 C         141.4438  139.5243  167.1858 C.ar    1  UNL1        0.0035
     14 C         142.3688  139.6884  166.0165 C.ar    1  UNL1       -0.0043
     15 C         140.3681  140.4691  169.3538 C.3     1  UNL1        0.4186
     16 F         139.4430  140.3049  170.5232 F       1  UNL1       -0.1659
     17 F         139.6203  141.7001  168.9350 F       1  UNL1       -0.1659
     18 F         141.1160  139.2382  169.7726 F       1  UNL1       -0.1659
     19 C         141.4551  145.1895  162.2074 C.3     1  UNL1        0.0294
     20 C         140.0657  145.6968  161.9580 C.3     1  UNL1        0.0666
     21 S         138.9275  145.2150  162.8079 S.3     1  UNL1       -0.0756
     22 C         139.8416  142.9365  164.9579 C.3     1  UNL1        0.1340
     23 N         138.9519  142.7211  163.7697 N.ar    1  UNL1       -0.2887
     24 C         138.5317  143.7684  162.7814 C.ar    1  UNL1        0.1932
     25 N         137.6463  143.1152  161.7620 N.ar    1  UNL1       -0.1221
     26 N         137.5192  141.6641  162.1202 N.ar    1  UNL1       -0.1286
     27 C         138.3261  141.4205  163.3610 C.ar    1  UNL1        0.1633
     28 C         138.4802  140.1070  164.0688 C.2     1  UNL1        0.0243
     29 C         139.0649  138.9298  163.3463 C.2     1  UNL1        0.0172
     30 C         139.2190  137.6163  164.0542 C.2     1  UNL1        0.0884
     31 N         138.7882  137.4802  165.4846 N.am    1  UNL1       -0.1776
     32 C         138.2034  138.6575  166.2071 C.2     1  UNL1        0.2501
     33 O         137.7727  138.5213  167.6374 O.2     1  UNL1       -0.2726
     34 C         138.0494  139.9709  165.4992 C.3     1  UNL1        0.1165
@<TRIPOS>BOND
     1    22    23    1
     2    23    24   ar
     3    24    21    1
     4    21    20    1
     5    20    19    1
     6    19     1    1
     7     1     2    1
     8     2     3    1
     9     3     4    1
    10     5     4    1
    11     5     6    1
    12     6     7    1
    13     7     9    1
    14     9    10   ar
    15    10    11   ar
    16    11    12   ar
    17    12    15    1
    18    15    16    1
    19    15    17    1
    20    15    18    1
    21    12    13   ar
    22    13    14   ar
    23     5     8    1
    24    24    25   ar
    25    25    26   ar
    26    26    27   ar
    27    27    28    1
    28    28    29    2
    29    29    30    1
    30    30    31    2
    31    31    32    1
    32    32    33    2
    33    32    34    1
    34    27    23   ar
    35    34    28    1
    36     8     2    1
    37     7     5    1
    38    14     9   ar
@<TRIPOS>MOLECULE
*****
 34 38 0 0 0
SMALL
GASTEIGER

@<TRIPOS>ATOM
      1 C         144.4653  142.7798  162.9186 C.3     1  UNL1        0.0730
      2 N         143.1715  142.8267  162.1612 N.3     1  UNL1       -0.2726
      3 C         142.9092  143.6147  160.9121 C.3     1  UNL1        0.0721
      4 C         141.4883  143.3689  160.4989 C.3     1  UNL1        0.0190
      5 C         140.8725  142.4291  161.4926 C.3     1  UNL1        0.0201
      6 C         139.5213  142.3776  160.8432 C.3     1  UNL1        0.0061
      7 C         139.7836  141.5896  162.0923 C.3     1  UNL1        0.0237
      8 C         141.9127  142.0940  162.5200 C.3     1  UNL1        0.0724
      9 C         139.3064  140.6500  163.1598 C.ar    1  UNL1       -0.0225
     10 C         139.3496  139.1685  162.9289 C.ar    1  UNL1       -0.0043
     11 C         138.8724  138.2289  163.9964 C.ar    1  UNL1        0.0035
     12 C         138.3521  138.7709  165.2946 C.ar    1  UNL1        0.0714
     13 C         138.3089  140.2524  165.5255 C.ar    1  UNL1        0.0035
     14 C         138.7861  141.1920  164.4580 C.ar    1  UNL1       -0.0043
     15 C         137.8749  137.8313  166.3621 C.3     1  UNL1        0.4186
     16 F         137.3977  136.8916  167.4296 F       1  UNL1       -0.1659
     17 F         137.2911  138.9874  167.1188 F       1  UNL1       -0.1659
     18 F         138.4587  136.6752  165.6054 F       1  UNL1       -0.1659
     19 C         145.3161  141.5452  162.8740 C.3     1  UNL1        0.0294
     20 C         145.4117  140.6561  164.0783 C.3     1  UNL1        0.0666
     21 S         144.3930  139.5770  164.2967 S.3     1  UNL1       -0.0756
     22 C         142.2659  141.5127  165.8389 C.3     1  UNL1        0.1340
     23 N         142.8470  140.2379  166.3748 N.ar    1  UNL1       -0.2887
     24 C         143.8248  139.3482  165.6659 C.ar    1  UNL1        0.1932
     25 N         144.1345  138.1894  166.5666 N.ar    1  UNL1       -0.1221
     26 N         143.3482  138.3629  167.8322 N.ar    1  UNL1       -0.1286
     27 C         142.5525  139.6289  167.7137 C.ar    1  UNL1        0.1633
     28 C         141.6251  140.1879  168.7517 C.2     1  UNL1        0.0243
     29 C         140.1446  139.9844  168.6224 C.2     1  UNL1        0.0172
     30 C         139.2172  140.5434  169.6604 C.2     1  UNL1        0.0884
     31 N         139.7704  141.3058  170.8279 N.am    1  UNL1       -0.1776
     32 C         141.2509  141.5092  170.9572 C.2     1  UNL1        0.2501
     33 O         141.8040  142.2716  172.1246 O.2     1  UNL1       -0.2726
     34 C         142.1783  140.9502  169.9191 C.3     1  UNL1        0.1165
@<TRIPOS>BOND
     1    22    23    1
     2    23    24   ar
     3    24    21    1
     4    21    20    1
     5    20    19    1
     6    19     1    1
     7     1     2    1
     8     2     3    1
     9     3     4    1
    10     5     4    1
    11     5     6    1
    12     6     7    1
    13     7     9    1
    14     9    10   ar
    15    10    11   ar
    16    11    12   ar
    17    12    15    1
    18    15    16    1
    19    15    17    1
    20    15    18    1
    21    12    13   ar
    22    13    14   ar
    23     5     8    1
    24    24    25   ar
    25    25    26   ar
    26    26    27   ar
    27    27    28    1
    28    28    29    2
    29    29    30    1
    30    30    31    2
    31    31    32    1
    32    32    33    2
    33    32    34    1
    34    27    23   ar
    35    34    28    1
    36     8     2    1
    37     7     5    1
    38    14     9   ar
@<TRIPOS>MOLECULE
*****
 34 38 0 0 0
SMALL
GASTEIGER

@<TRIPOS>ATOM
      1 C         141.5415  143.4117  161.0926 C.3     1  UNL1        0.0730
      2 N         142.8068  142.8728  161.6914 N.3     1  UNL1       -0.2726
      3 C         144.1549  142.8534  161.0339 C.3     1  UNL1        0.0721
      4 C         145.1274  142.2273  161.9891 C.3     1  UNL1        0.0190
      5 C         144.3804  141.8599  163.2369 C.3     1  UNL1        0.0201
      6 C         145.5607  141.2856  163.9629 C.3     1  UNL1        0.0061
      7 C         144.2126  141.3051  164.6204 C.3     1  UNL1        0.0237
      8 C         142.9462  142.2589  163.0529 C.3     1  UNL1        0.0724
      9 C         143.3374  140.9960  165.7987 C.ar    1  UNL1       -0.0225
     10 C         142.6709  139.6566  165.9071 C.ar    1  UNL1       -0.0043
     11 C         141.7958  139.3475  167.0854 C.ar    1  UNL1        0.0035
     12 C         141.5870  140.3778  168.1554 C.ar    1  UNL1        0.0714
     13 C         142.2535  141.7173  168.0470 C.ar    1  UNL1        0.0035
     14 C         143.1287  142.0264  166.8686 C.ar    1  UNL1       -0.0043
     15 C         140.7119  140.0688  169.3337 C.3     1  UNL1        0.4186
     16 F         139.8366  139.7597  170.5121 F       1  UNL1       -0.1659
     17 F         141.7265  139.0809  169.8282 F       1  UNL1       -0.1659
     18 F         139.6972  141.0566  168.8392 F       1  UNL1       -0.1659
     19 C         141.1841  144.8576  161.2701 C.3     1  UNL1        0.0294
     20 C         139.7438  145.2730  161.3259 C.3     1  UNL1        0.0666
     21 S         138.9823  145.1678  162.6139 S.3     1  UNL1       -0.0756
     22 C         137.9967  142.0750  162.2779 C.3     1  UNL1        0.1340
     23 N         138.8151  142.6215  163.4100 N.ar    1  UNL1       -0.2887
     24 C         139.2681  144.0431  163.5644 C.ar    1  UNL1        0.1932
     25 N         140.0572  144.1426  164.8362 N.ar    1  UNL1       -0.1221
     26 N         140.0919  142.7825  165.4678 N.ar    1  UNL1       -0.1286
     27 C         139.3242  141.8424  164.5864 C.ar    1  UNL1        0.1633
     28 C         139.1043  140.3799  164.8373 C.2     1  UNL1        0.0243
     29 C         139.7367  139.3610  163.9363 C.2     1  UNL1        0.0172
     30 C         139.5168  137.8985  164.1872 C.2     1  UNL1        0.0884
     31 N         138.6644  137.4552  165.3392 N.am    1  UNL1       -0.1776
     32 C         138.0320  138.4741  166.2401 C.2     1  UNL1        0.2501
     33 O         137.1796  138.0307  167.3920 O.2     1  UNL1       -0.2726
     34 C         138.2519  139.9366  165.9892 C.3     1  UNL1        0.1165
@<TRIPOS>BOND
     1    22    23    1
     2    23    24   ar
     3    24    21    1
     4    21    20    1
     5    20    19    1
     6    19     1    1
     7     1     2    1
     8     2     3    1
     9     3     4    1
    10     5     4    1
    11     5     6    1
    12     6     7    1
    13     7     9    1
    14     9    10   ar
    15    10    11   ar
    16    11    12   ar
    17    12    15    1
    18    15    16    1
    19    15    17    1
    20    15    18    1
    21    12    13   ar
    22    13    14   ar
    23     5     8    1
    24    24    25   ar
    25    25    26   ar
    26    26    27   ar
    27    27    28    1
    28    28    29    2
    29    29    30    1
    30    30    31    2
    31    31    32    1
    32    32    33    2
    33    32    34    1
    34    27    23   ar
    35    34    28    1
    36     8     2    1
    37     7     5    1
    38    14     9   ar
@<TRIPOS>MOLECULE
*****
 34 38 0 0 0
SMALL
GASTEIGER

@<TRIPOS>ATOM
      1 C         142.7918  138.1526  162.3741 C.3     1  UNL1        0.0730
      2 N         141.4970  138.1622  163.1313 N.3     1  UNL1       -0.2726
      3 C         140.2293  137.4745  162.7188 C.3     1  UNL1        0.0721
      4 C         139.1914  137.7484  163.7665 C.3     1  UNL1        0.0190
      5 C         139.8176  138.6053  164.8265 C.3     1  UNL1        0.0201
      6 C         138.5953  138.7044  165.6903 C.3     1  UNL1        0.0061
      7 C         139.8630  139.3920  166.1029 C.3     1  UNL1        0.0237
      8 C         141.2425  138.8610  164.4339 C.3     1  UNL1        0.0724
      9 C         140.6211  140.2432  167.0779 C.ar    1  UNL1       -0.0225
     10 C         140.0393  141.5430  167.5493 C.ar    1  UNL1       -0.0043
     11 C         140.7974  142.3942  168.5244 C.ar    1  UNL1        0.0035
     12 C         142.1372  141.9457  169.0279 C.ar    1  UNL1        0.0714
     13 C         142.7190  140.6459  168.5565 C.ar    1  UNL1        0.0035
     14 C         141.9609  139.7947  167.5814 C.ar    1  UNL1       -0.0043
     15 C         142.8953  142.7969  170.0029 C.3     1  UNL1        0.4186
     16 F         143.6534  143.6482  170.9781 F       1  UNL1       -0.1659
     17 F         144.1716  142.4933  169.2757 F       1  UNL1       -0.1659
     18 F         141.6191  143.1005  170.7302 F       1  UNL1       -0.1659
     19 C         144.0060  138.8133  162.9564 C.3     1  UNL1        0.0294
     20 C         144.7228  139.8804  162.1833 C.3     1  UNL1        0.0666
     21 S         144.9310  141.2356  162.7916 S.3     1  UNL1       -0.0756
     22 C         141.8304  141.7428  161.9090 C.3     1  UNL1        0.1340
     23 N         142.4347  142.0800  163.2398 N.ar    1  UNL1       -0.2887
     24 C         143.8599  141.8469  163.6455 C.ar    1  UNL1        0.1932
     25 N         144.0260  142.3323  165.0550 N.ar    1  UNL1       -0.1221
     26 N         142.7035  142.8655  165.5205 N.ar    1  UNL1       -0.1286
     27 C         141.7199  142.7095  164.3987 C.ar    1  UNL1        0.1633
     28 C         140.2754  143.1124  164.4302 C.2     1  UNL1        0.0243
     29 C         139.8662  144.3844  165.1118 C.2     1  UNL1        0.0172
     30 C         138.4216  144.7872  165.1433 C.2     1  UNL1        0.0884
     31 N         137.3863  143.9180  164.4930 N.am    1  UNL1       -0.1776
     32 C         137.7955  142.6461  163.8114 C.2     1  UNL1        0.2501
     33 O         136.7602  141.7770  163.1612 O.2     1  UNL1       -0.2726
     34 C         139.2401  142.2433  163.7800 C.3     1  UNL1        0.1165
@<TRIPOS>BOND
     1    22    23    1
     2    23    24   ar
     3    24    21    1
     4    21    20    1
     5    20    19    1
     6    19     1    1
     7     1     2    1
     8     2     3    1
     9     3     4    1
    10     5     4    1
    11     5     6    1
    12     6     7    1
    13     7     9    1
    14     9    10   ar
    15    10    11   ar
    16    11    12   ar
    17    12    15    1
    18    15    16    1
    19    15    17    1
    20    15    18    1
    21    12    13   ar
    22    13    14   ar
    23     5     8    1
    24    24    25   ar
    25    25    26   ar
    26    26    27   ar
    27    27    28    1
    28    28    29    2
    29    29    30    1
    30    30    31    2
    31    31    32    1
    32    32    33    2
    33    32    34    1
    34    27    23   ar
    35    34    28    1
    36     8     2    1
    37     7     5    1
    38    14     9   ar
@<TRIPOS>MOLECULE
*****
 34 38 0 0 0
SMALL
GASTEIGER

@<TRIPOS>ATOM
      1 C         143.4398  143.9725  162.1096 C.3     1  UNL1        0.0730
      2 N         143.7540  142.6544  162.7531 N.3     1  UNL1       -0.2726
      3 C         144.5843  141.5573  162.1558 C.3     1  UNL1        0.0721
      4 C         144.6364  140.4270  163.1404 C.3     1  UNL1        0.0190
      5 C         143.8383  140.8255  164.3463 C.3     1  UNL1        0.0201
      6 C         144.0673  139.5564  165.1124 C.3     1  UNL1        0.0061
      7 C         143.2369  140.6535  165.7097 C.3     1  UNL1        0.0237
      8 C         143.2929  142.2022  164.1069 C.3     1  UNL1        0.0724
      9 C         142.4104  141.1877  166.8417 C.ar    1  UNL1       -0.0225
     10 C         142.9672  142.2524  167.7397 C.ar    1  UNL1       -0.0043
     11 C         142.1406  142.7865  168.8717 C.ar    1  UNL1        0.0035
     12 C         140.7572  142.2560  169.1057 C.ar    1  UNL1        0.0714
     13 C         140.2004  141.1912  168.2077 C.ar    1  UNL1        0.0035
     14 C         141.0270  140.6571  167.0757 C.ar    1  UNL1       -0.0043
     15 C         139.9306  142.7901  170.2377 C.3     1  UNL1        0.4186
     16 F         139.1040  143.3242  171.3698 F       1  UNL1       -0.1659
     17 F         140.8012  144.0102  170.2977 F       1  UNL1       -0.1659
     18 F         139.0601  141.5700  170.1778 F       1  UNL1       -0.1659
     19 C         142.4961  144.0326  160.9453 C.3     1  UNL1        0.0294
     20 C         141.1221  144.6079  161.1223 C.3     1  UNL1        0.0666
     21 S         139.9207  143.8345  160.6660 S.3     1  UNL1       -0.0756
     22 C         140.8248  140.9393  161.8702 C.3     1  UNL1        0.1340
     23 N         139.5605  141.6757  162.2006 N.ar    1  UNL1       -0.2887
     24 C         139.1449  143.0065  161.6471 C.ar    1  UNL1        0.1932
     25 N         137.8173  143.3639  162.2470 N.ar    1  UNL1       -0.1221
     26 N         137.4124  142.2540  163.1712 N.ar    1  UNL1       -0.1286
     27 C         138.4897  141.2106  163.1426 C.ar    1  UNL1        0.1633
     28 C         138.4952  139.9275  163.9195 C.2     1  UNL1        0.0243
     29 C         138.8993  138.6473  163.2503 C.2     1  UNL1        0.0172
     30 C         138.9048  137.3641  164.0272 C.2     1  UNL1        0.0884
     31 N         138.5063  137.3613  165.4734 N.am    1  UNL1       -0.1776
     32 C         138.1023  138.6415  166.1426 C.2     1  UNL1        0.2501
     33 O         137.7039  138.6386  167.5887 O.2     1  UNL1       -0.2726
     34 C         138.0968  139.9247  165.3656 C.3     1  UNL1        0.1165
@<TRIPOS>BOND
     1    22    23    1
     2    23    24   ar
     3    24    21    1
     4    21    20    1
     5    20    19    1
     6    19     1    1
     7     1     2    1
     8     2     3    1
     9     3     4    1
    10     5     4    1
    11     5     6    1
    12     6     7    1
    13     7     9    1
    14     9    10   ar
    15    10    11   ar
    16    11    12   ar
    17    12    15    1
    18    15    16    1
    19    15    17    1
    20    15    18    1
    21    12    13   ar
    22    13    14   ar
    23     5     8    1
    24    24    25   ar
    25    25    26   ar
    26    26    27   ar
    27    27    28    1
    28    28    29    2
    29    29    30    1
    30    30    31    2
    31    31    32    1
    32    32    33    2
    33    32    34    1
    34    27    23   ar
    35    34    28    1
    36     8     2    1
    37     7     5    1
    38    14     9   ar
@<TRIPOS>MOLECULE
*****
 34 38 0 0 0
SMALL
GASTEIGER

@<TRIPOS>ATOM
      1 C         141.7207  142.9263  159.8778 C.3     1  UNL1        0.0730
      2 N         141.1529  143.7074  161.0257 N.3     1  UNL1       -0.2726
      3 C         141.1586  145.2009  161.1643 C.3     1  UNL1        0.0721
      4 C         140.4890  145.5486  162.4607 C.3     1  UNL1        0.0190
      5 C         140.0696  144.2699  163.1234 C.3     1  UNL1        0.0201
      6 C         139.4612  144.9130  164.3342 C.3     1  UNL1        0.0061
      7 C         139.4555  143.4194  164.1956 C.3     1  UNL1        0.0237
      8 C         140.4799  143.1319  162.2364 C.3     1  UNL1        0.0724
      9 C         139.0978  142.0661  164.7346 C.ar    1  UNL1       -0.0225
     10 C         139.5371  141.6674  166.1123 C.ar    1  UNL1       -0.0043
     11 C         139.1793  140.3141  166.6513 C.ar    1  UNL1        0.0035
     12 C         138.3823  139.3595  165.8126 C.ar    1  UNL1        0.0714
     13 C         137.9430  139.7583  164.4349 C.ar    1  UNL1        0.0035
     14 C         138.3007  141.1116  163.8959 C.ar    1  UNL1       -0.0043
     15 C         138.0245  138.0062  166.3516 C.3     1  UNL1        0.4186
     16 F         137.6668  136.6528  166.8906 F       1  UNL1       -0.1659
     17 F         137.2409  138.6529  167.4551 F       1  UNL1       -0.1659
     18 F         138.8082  137.3596  165.2481 F       1  UNL1       -0.1659
     19 C         143.1979  142.9416  159.6179 C.3     1  UNL1        0.0294
     20 C         144.1534  142.5208  160.6950 C.3     1  UNL1        0.0666
     21 S         144.1768  141.0956  161.1619 S.3     1  UNL1       -0.0756
     22 C         145.1736  141.5168  164.2406 C.3     1  UNL1        0.1340
     23 N         143.8798  140.8916  163.8105 N.ar    1  UNL1       -0.2887
     24 C         143.4216  140.6980  162.3954 C.ar    1  UNL1        0.1932
     25 N         142.0755  140.0370  162.4303 N.ar    1  UNL1       -0.1221
     26 N         141.7018  139.8221  163.8670 N.ar    1  UNL1       -0.1286
     27 C         142.8168  140.3503  164.7201 C.ar    1  UNL1        0.1633
     28 C         142.8612  140.3391  166.2194 C.2     1  UNL1        0.0243
     29 C         142.8268  139.0357  166.9610 C.2     1  UNL1        0.0172
     30 C         142.8711  139.0245  168.4603 C.2     1  UNL1        0.0884
     31 N         142.9499  140.3168  169.2179 N.am    1  UNL1       -0.1776
     32 C         142.9843  141.6202  168.4763 C.2     1  UNL1        0.2501
     33 O         143.0630  142.9124  169.2340 O.2     1  UNL1       -0.2726
     34 C         142.9399  141.6313  166.9770 C.3     1  UNL1        0.1165
@<TRIPOS>BOND
     1    22    23    1
     2    23    24   ar
     3    24    21    1
     4    21    20    1
     5    20    19    1
     6    19     1    1
     7     1     2    1
     8     2     3    1
     9     3     4    1
    10     5     4    1
    11     5     6    1
    12     6     7    1
    13     7     9    1
    14     9    10   ar
    15    10    11   ar
    16    11    12   ar
    17    12    15    1
    18    15    16    1
    19    15    17    1
    20    15    18    1
    21    12    13   ar
    22    13    14   ar
    23     5     8    1
    24    24    25   ar
    25    25    26   ar
    26    26    27   ar
    27    27    28    1
    28    28    29    2
    29    29    30    1
    30    30    31    2
    31    31    32    1
    32    32    33    2
    33    32    34    1
    34    27    23   ar
    35    34    28    1
    36     8     2    1
    37     7     5    1
    38    14     9   ar
@<TRIPOS>MOLECULE
*****
 34 38 0 0 0
SMALL
GASTEIGER

@<TRIPOS>ATOM
      1 C         140.7387  137.2494  162.8975 C.3     1  UNL1        0.0730
      2 N         141.9391  138.1030  163.1808 N.3     1  UNL1       -0.2726
      3 C         143.2102  138.1290  162.3848 C.3     1  UNL1        0.0721
      4 C         144.1358  139.1227  163.0219 C.3     1  UNL1        0.0190
      5 C         143.4368  139.7107  164.2117 C.3     1  UNL1        0.0201
      6 C         144.5576  140.6212  164.6178 C.3     1  UNL1        0.0061
      7 C         143.2865  140.5952  165.4138 C.3     1  UNL1        0.0237
      8 C         142.0792  139.0806  164.3099 C.3     1  UNL1        0.0724
      9 C         142.4659  141.0908  166.5674 C.ar    1  UNL1       -0.0225
     10 C         141.6628  142.3503  166.4302 C.ar    1  UNL1       -0.0043
     11 C         140.8421  142.8459  167.5839 C.ar    1  UNL1        0.0035
     12 C         140.8246  142.0821  168.8747 C.ar    1  UNL1        0.0714
     13 C         141.6276  140.8226  169.0119 C.ar    1  UNL1        0.0035
     14 C         142.4483  140.3270  167.8582 C.ar    1  UNL1       -0.0043
     15 C         140.0039  142.5777  170.0283 C.3     1  UNL1        0.4186
     16 F         139.1832  143.0733  171.1820 F       1  UNL1       -0.1659
     17 F         139.8541  141.1707  170.5262 F       1  UNL1       -0.1659
     18 F         140.1537  143.9846  169.5304 F       1  UNL1       -0.1659
     19 C         139.3798  137.6908  163.3541 C.3     1  UNL1        0.0294
     20 C         138.2980  137.9504  162.3479 C.3     1  UNL1        0.0666
     21 S         137.9562  139.3586  161.9605 S.3     1  UNL1       -0.0756
     22 C         140.8289  140.4552  160.8673 C.3     1  UNL1        0.1340
     23 N         140.0583  141.0083  162.0294 N.ar    1  UNL1       -0.2887
     24 C         138.7379  140.5043  162.5318 C.ar    1  UNL1        0.1932
     25 N         138.3364  141.3470  163.7059 N.ar    1  UNL1       -0.1221
     26 N         139.4086  142.3719  163.9291 N.ar    1  UNL1       -0.1286
     27 C         140.4729  142.1626  162.8929 C.ar    1  UNL1        0.1633
     28 C         141.7308  142.9665  162.7461 C.2     1  UNL1        0.0243
     29 C         141.8763  144.2710  163.4722 C.2     1  UNL1        0.0172
     30 C         143.1342  145.0748  163.3253 C.2     1  UNL1        0.0884
     31 N         144.2466  144.5741  162.4524 N.am    1  UNL1       -0.1776
     32 C         144.1011  143.2696  161.7264 C.2     1  UNL1        0.2501
     33 O         145.2135  142.7690  160.8536 O.2     1  UNL1       -0.2726
     34 C         142.8431  142.4658  161.8733 C.3     1  UNL1        0.1165
@<TRIPOS>BOND
     1    22    23    1
     2    23    24   ar
     3    24    21    1
     4    21    20    1
     5    20    19    1
     6    19     1    1
     7     1     2    1
     8     2     3    1
     9     3     4    1
    10     5     4    1
    11     5     6    1
    12     6     7    1
    13     7     9    1
    14     9    10   ar
    15    10    11   ar
    16    11    12   ar
    17    12    15    1
    18    15    16    1
    19    15    17    1
    20    15    18    1
    21    12    13   ar
    22    13    14   ar
    23     5     8    1
    24    24    25   ar
    25    25    26   ar
    26    26    27   ar
    27    27    28    1
    28    28    29    2
    29    29    30    1
    30    30    31    2
    31    31    32    1
    32    32    33    2
    33    32    34    1
    34    27    23   ar
    35    34    28    1
    36     8     2    1
    37     7     5    1
    38    14     9   ar
@<TRIPOS>MOLECULE
*****
 34 38 0 0 0
SMALL
GASTEIGER

@<TRIPOS>ATOM
      1 C         143.0329  143.3368  160.6723 C.3     1  UNL1        0.0730
      2 N         141.7564  143.9442  161.1738 N.3     1  UNL1       -0.2726
      3 C         141.2512  145.3207  160.8578 C.3     1  UNL1        0.0721
      4 C         139.9435  145.5089  161.5681 C.3     1  UNL1        0.0190
      5 C         139.6404  144.2486  162.3229 C.3     1  UNL1        0.0201
      6 C         138.3392  144.7208  162.9006 C.3     1  UNL1        0.0061
      7 C         138.8443  143.3443  163.2165 C.3     1  UNL1        0.0237
      8 C         140.7609  143.2815  162.0792 C.3     1  UNL1        0.0724
      9 C         138.6764  142.0274  163.9148 C.ar    1  UNL1       -0.0225
     10 C         139.0812  141.8836  165.3520 C.ar    1  UNL1       -0.0043
     11 C         138.9133  140.5667  166.0503 C.ar    1  UNL1        0.0035
     12 C         138.3406  139.3937  165.3114 C.ar    1  UNL1        0.0714
     13 C         137.9358  139.5375  163.8743 C.ar    1  UNL1        0.0035
     14 C         138.1037  140.8543  163.1759 C.ar    1  UNL1       -0.0043
     15 C         138.1726  138.0768  166.0098 C.3     1  UNL1        0.4186
     16 F         138.0047  136.7599  166.7081 F       1  UNL1       -0.1659
     17 F         138.9543  137.4007  164.9226 F       1  UNL1       -0.1659
     18 F         137.3910  138.7530  167.0969 F       1  UNL1       -0.1659
     19 C         143.9939  142.7077  161.6370 C.3     1  UNL1        0.0294
     20 C         143.7469  141.3171  162.1425 C.3     1  UNL1        0.0666
     21 S         144.4691  140.8226  163.3606 S.3     1  UNL1       -0.0756
     22 C         144.0623  142.8933  165.8498 C.3     1  UNL1        0.1340
     23 N         143.5207  141.4969  165.7670 N.ar    1  UNL1       -0.2887
     24 C         143.7076  140.5451  164.6228 C.ar    1  UNL1        0.1932
     25 N         142.9995  139.2671  164.9624 N.ar    1  UNL1       -0.1221
     26 N         142.3749  139.4291  166.3166 N.ar    1  UNL1       -0.1286
     27 C         142.6969  140.8072  166.8138 C.ar    1  UNL1        0.1633
     28 C         142.2702  141.3926  168.1273 C.2     1  UNL1        0.0243
     29 C         142.7910  140.8157  169.4102 C.2     1  UNL1        0.0172
     30 C         142.3642  141.4012  170.7237 C.2     1  UNL1        0.0884
     31 N         141.4167  142.5637  170.7541 N.am    1  UNL1       -0.1776
     32 C         140.8960  143.1407  169.4711 C.2     1  UNL1        0.2501
     33 O         139.9485  144.3031  169.5017 O.2     1  UNL1       -0.2726
     34 C         141.3228  142.5551  168.1577 C.3     1  UNL1        0.1165
@<TRIPOS>BOND
     1    22    23    1
     2    23    24   ar
     3    24    21    1
     4    21    20    1
     5    20    19    1
     6    19     1    1
     7     1     2    1
     8     2     3    1
     9     3     4    1
    10     5     4    1
    11     5     6    1
    12     6     7    1
    13     7     9    1
    14     9    10   ar
    15    10    11   ar
    16    11    12   ar
    17    12    15    1
    18    15    16    1
    19    15    17    1
    20    15    18    1
    21    12    13   ar
    22    13    14   ar
    23     5     8    1
    24    24    25   ar
    25    25    26   ar
    26    26    27   ar
    27    27    28    1
    28    28    29    2
    29    29    30    1
    30    30    31    2
    31    31    32    1
    32    32    33    2
    33    32    34    1
    34    27    23   ar
    35    34    28    1
    36     8     2    1
    37     7     5    1
    38    14     9   ar
@<TRIPOS>MOLECULE
*****
 34 38 0 0 0
SMALL
GASTEIGER

@<TRIPOS>ATOM
      1 C         143.9532  142.7691  160.5268 C.3     1  UNL1        0.0730
      2 N         143.5162  141.4372  159.9928 N.3     1  UNL1       -0.2726
      3 C         143.9521  140.8208  158.6966 C.3     1  UNL1        0.0721
      4 C         143.2719  139.4905  158.5640 C.3     1  UNL1        0.0190
      5 C         142.4156  139.2847  159.7783 C.3     1  UNL1        0.0201
      6 C         141.8915  137.9386  159.3742 C.3     1  UNL1        0.0061
      7 C         141.4555  138.5549  160.6704 C.3     1  UNL1        0.0237
      8 C         142.5666  140.4878  160.6613 C.3     1  UNL1        0.0724
      9 C         140.6496  138.4895  161.9337 C.ar    1  UNL1       -0.0225
     10 C         141.1094  137.6288  163.0729 C.ar    1  UNL1       -0.0043
     11 C         140.3035  137.5633  164.3363 C.ar    1  UNL1        0.0035
     12 C         139.0377  138.3585  164.4605 C.ar    1  UNL1        0.0714
     13 C         138.5779  139.2193  163.3213 C.ar    1  UNL1        0.0035
     14 C         139.3838  139.2847  162.0579 C.ar    1  UNL1       -0.0043
     15 C         138.2318  138.2931  165.7239 C.3     1  UNL1        0.4186
     16 F         137.4258  138.2276  166.9873 F       1  UNL1       -0.1659
     17 F         138.4738  136.8148  165.8017 F       1  UNL1       -0.1659
     18 F         137.9897  139.7713  165.6460 F       1  UNL1       -0.1659
     19 C         143.8178  143.0717  161.9897 C.3     1  UNL1        0.0294
     20 C         143.1854  144.3571  162.4344 C.3     1  UNL1        0.0666
     21 S         142.0172  144.3322  163.3750 S.3     1  UNL1       -0.0756
     22 C         139.5392  143.6822  165.3965 C.3     1  UNL1        0.1340
     23 N         140.9676  143.2675  165.5907 N.ar    1  UNL1       -0.2887
     24 C         142.1066  143.5662  164.6615 C.ar    1  UNL1        0.1932
     25 N         143.3507  142.9645  165.2448 N.ar    1  UNL1       -0.1221
     26 N         142.9806  142.2939  166.5345 N.ar    1  UNL1       -0.1286
     27 C         141.5077  142.4811  166.7483 C.ar    1  UNL1        0.1633
     28 C         140.7143  141.9714  167.9149 C.2     1  UNL1        0.0243
     29 C         140.1714  140.5732  167.8992 C.2     1  UNL1        0.0172
     30 C         139.3781  140.0635  169.0657 C.2     1  UNL1        0.0884
     31 N         139.1277  140.9522  170.2480 N.am    1  UNL1       -0.1776
     32 C         139.6706  142.3504  170.2637 C.2     1  UNL1        0.2501
     33 O         139.4201  143.2390  171.4459 O.2     1  UNL1       -0.2726
     34 C         140.4639  142.8600  169.0971 C.3     1  UNL1        0.1165
@<TRIPOS>BOND
     1    22    23    1
     2    23    24   ar
     3    24    21    1
     4    21    20    1
     5    20    19    1
     6    19     1    1
     7     1     2    1
     8     2     3    1
     9     3     4    1
    10     5     4    1
    11     5     6    1
    12     6     7    1
    13     7     9    1
    14     9    10   ar
    15    10    11   ar
    16    11    12   ar
    17    12    15    1
    18    15    16    1
    19    15    17    1
    20    15    18    1
    21    12    13   ar
    22    13    14   ar
    23     5     8    1
    24    24    25   ar
    25    25    26   ar
    26    26    27   ar
    27    27    28    1
    28    28    29    2
    29    29    30    1
    30    30    31    2
    31    31    32    1
    32    32    33    2
    33    32    34    1
    34    27    23   ar
    35    34    28    1
    36     8     2    1
    37     7     5    1
    38    14     9   ar
