@<TRIPOS>MOLECULE
*****
 40 43 0 0 0
SMALL
GASTEIGER

@<TRIPOS>ATOM
      1 N         144.5039  142.6863  158.8176 N.3     1  UNL1       -0.2711
      2 C         144.6569  142.4661  160.2935 C.3     1  UNL1        0.0933
      3 C         143.3040  143.0715  160.5241 C.3     1  UNL1        0.1035
      4 C         143.1510  143.2917  159.0482 C.3     1  UNL1        0.0933
      5 C         147.0493  141.8688  155.1979 C.3     1  UNL1        0.1085
      6 O         146.9638  141.1913  153.8623 O.3     1  UNL1       -0.3826
      7 C         147.6158  142.6366  156.3552 C.3     1  UNL1        0.0326
      8 C         146.7674  142.9091  157.5619 C.3     1  UNL1        0.0187
      9 C         145.3524  142.4138  157.6111 C.3     1  UNL1        0.0578
     10 C         144.7858  141.6460  156.4537 C.3     1  UNL1        0.0187
     11 C         145.6343  141.3735  155.2471 C.3     1  UNL1        0.0326
     12 H         147.8123  141.2791  153.4004 H       1  UNL1        0.2107
     13 C         151.2053  142.6488  153.6587 C.ar    1  UNL1        0.2248
     14 C         150.0242  143.2782  152.9813 C.ar    1  UNL1        0.0575
     15 C         148.6389  143.0182  153.4944 C.ar    1  UNL1        0.0043
     16 C         148.4346  142.1288  154.6848 C.ar    1  UNL1        0.0211
     17 C         149.6157  141.4994  155.3622 C.ar    1  UNL1        0.1000
     18 N         151.0010  141.7594  154.8491 N.ar    1  UNL1       -0.2104
     19 O         152.5906  142.9088  153.1456 O.3     1  UNL1       -0.4602
     20 C         153.2622  144.7551  154.8457 C.3     1  UNL1        0.0512
     21 C         153.6157  143.5399  154.0406 C.3     1  UNL1        0.2072
     22 N         142.4556  143.3439  161.7307 N.am    1  UNL1       -0.3018
     23 C         142.9086  144.3399  162.7567 C.2     1  UNL1        0.2426
     24 O         144.2100  145.0635  162.5762 O.2     1  UNL1       -0.2733
     25 H         141.6014  142.8690  161.8492 H       1  UNL1        0.1495
     26 C         142.0601  144.6123  163.9634 C.3     1  UNL1        0.1759
     27 N         141.7808  143.5149  164.9470 N.am    1  UNL1       -0.2931
     28 C         140.3704  143.2276  165.3696 C.2     1  UNL1        0.2462
     29 O         139.2396  144.0378  164.8086 O.2     1  UNL1       -0.2701
     30 H         142.5230  142.9832  165.3153 H       1  UNL1        0.1502
     31 C         140.0911  142.1302  166.3533 C.ar    1  UNL1        0.0533
     32 C         140.4580  142.3057  167.7970 C.ar    1  UNL1        0.0045
     33 C         140.1786  141.2083  168.7807 C.ar    1  UNL1        0.0001
     34 C         139.5323  139.9353  168.3205 C.ar    1  UNL1        0.0039
     35 C         139.1654  139.7597  166.8767 C.ar    1  UNL1        0.0716
     36 C         139.4448  140.8572  165.8931 C.ar    1  UNL1        0.0084
     37 C         138.5191  138.4867  166.4166 C.3     1  UNL1        0.4186
     38 F         137.8728  137.2138  165.9564 F       1  UNL1       -0.1659
     39 F         139.7208  138.1818  165.5723 F       1  UNL1       -0.1659
     40 F         137.3173  138.7916  167.2608 F       1  UNL1       -0.1659
@<TRIPOS>BOND
     1    20    21    1
     2    21    19    1
     3    19    13    1
     4    13    14   ar
     5    14    15   ar
     6    15    16   ar
     7    16     5    1
     8     5     6    1
     9     5     7    1
    10     7     8    1
    11     8     9    1
    12     9     1    1
    13     1     2    1
    14     2     3    1
    15     3    22    1
    16    22    23   am
    17    23    24    2
    18    23    26    1
    19    26    27    1
    20    27    28   am
    21    28    29    2
    22    28    31    1
    23    31    32   ar
    24    32    33   ar
    25    33    34   ar
    26    34    35   ar
    27    35    37    1
    28    37    38    1
    29    37    39    1
    30    37    40    1
    31    35    36   ar
    32     3     4    1
    33     9    10    1
    34    10    11    1
    35    16    17   ar
    36    17    18   ar
    37    18    13   ar
    38    11     5    1
    39     4     1    1
    40    36    31   ar
    41     6    12    1
    42    22    25    1
    43    27    30    1
@<TRIPOS>MOLECULE
*****
 40 43 0 0 0
SMALL
GASTEIGER

@<TRIPOS>ATOM
      1 N         139.5659  140.0911  160.2980 N.3     1  UNL1       -0.2711
      2 C         138.2026  140.6522  160.0211 C.3     1  UNL1        0.0933
      3 C         138.3242  140.2386  158.5844 C.3     1  UNL1        0.1035
      4 C         139.6875  139.6775  158.8613 C.3     1  UNL1        0.0933
      5 C         142.1998  139.7782  163.9332 C.3     1  UNL1        0.1085
      6 O         143.2375  138.8715  164.5257 O.3     1  UNL1       -0.3826
      7 C         141.2687  140.9442  163.7798 C.3     1  UNL1        0.0326
      8 C         140.3908  141.0485  162.5680 C.3     1  UNL1        0.0187
      9 C         140.4438  139.9868  161.5097 C.3     1  UNL1        0.0578
     10 C         141.3748  138.8208  161.6632 C.3     1  UNL1        0.0187
     11 C         142.2528  138.7165  162.8750 C.3     1  UNL1        0.0326
     12 H         143.5399  139.2359  165.3722 H       1  UNL1        0.2107
     13 C         143.1218  142.0187  167.7253 C.ar    1  UNL1        0.2248
     14 C         143.4430  142.6321  166.3947 C.ar    1  UNL1        0.0575
     15 C         143.1356  141.8853  165.1307 C.ar    1  UNL1        0.0043
     16 C         142.5071  140.5250  165.1972 C.ar    1  UNL1        0.0211
     17 C         142.1859  139.9115  166.5278 C.ar    1  UNL1        0.1000
     18 N         142.4933  140.6584  167.7918 N.ar    1  UNL1       -0.2104
     19 O         143.4291  142.7655  168.9893 O.3     1  UNL1       -0.4602
     20 C         141.1630  143.5390  169.9974 C.3     1  UNL1        0.0512
     21 C         142.4425  142.7657  170.1191 C.3     1  UNL1        0.2072
     22 N         137.4462  140.3429  157.3726 N.am    1  UNL1       -0.3018
     23 C         137.2349  141.6728  156.7118 C.2     1  UNL1        0.2426
     24 O         137.9015  142.8984  157.2627 O.2     1  UNL1       -0.2733
     25 H         137.0087  139.5385  157.0111 H       1  UNL1        0.1495
     26 C         136.3569  141.7771  155.5001 C.3     1  UNL1        0.1759
     27 N         134.8646  141.7601  155.6515 N.am    1  UNL1       -0.2931
     28 C         134.1443  140.4574  155.8362 C.2     1  UNL1        0.2462
     29 O         134.9163  139.1718  155.8696 O.2     1  UNL1       -0.2701
     30 H         134.3580  142.6040  155.6296 H       1  UNL1        0.1502
     31 C         132.6520  140.4405  155.9876 C.ar    1  UNL1        0.0533
     32 C         131.8218  141.5183  155.3561 C.ar    1  UNL1        0.0045
     33 C         130.3296  141.5013  155.5074 C.ar    1  UNL1        0.0001
     34 C         129.6676  140.4065  156.2905 C.ar    1  UNL1        0.0039
     35 C         130.4978  139.3286  156.9220 C.ar    1  UNL1        0.0716
     36 C         131.9900  139.3456  156.7707 C.ar    1  UNL1        0.0084
     37 C         129.8358  138.2338  157.7051 C.3     1  UNL1        0.4186
     38 F         129.1738  137.1390  158.4880 F       1  UNL1       -0.1659
     39 F         130.0522  137.2861  156.5627 F       1  UNL1       -0.1659
     40 F         129.6194  139.1816  158.8474 F       1  UNL1       -0.1659
@<TRIPOS>BOND
     1    20    21    1
     2    21    19    1
     3    19    13    1
     4    13    14   ar
     5    14    15   ar
     6    15    16   ar
     7    16     5    1
     8     5     6    1
     9     5     7    1
    10     7     8    1
    11     8     9    1
    12     9     1    1
    13     1     2    1
    14     2     3    1
    15     3    22    1
    16    22    23   am
    17    23    24    2
    18    23    26    1
    19    26    27    1
    20    27    28   am
    21    28    29    2
    22    28    31    1
    23    31    32   ar
    24    32    33   ar
    25    33    34   ar
    26    34    35   ar
    27    35    37    1
    28    37    38    1
    29    37    39    1
    30    37    40    1
    31    35    36   ar
    32     3     4    1
    33     9    10    1
    34    10    11    1
    35    16    17   ar
    36    17    18   ar
    37    18    13   ar
    38    11     5    1
    39     4     1    1
    40    36    31   ar
    41     6    12    1
    42    22    25    1
    43    27    30    1
@<TRIPOS>MOLECULE
*****
 40 43 0 0 0
SMALL
GASTEIGER

@<TRIPOS>ATOM
      1 N         140.6150  139.7808  160.9942 N.3     1  UNL1       -0.2711
      2 C         140.6004  138.3369  160.5881 C.3     1  UNL1        0.0933
      3 C         140.9784  138.7264  159.1898 C.3     1  UNL1        0.1035
      4 C         140.9930  140.1703  159.5959 C.3     1  UNL1        0.0933
      5 C         139.8440  142.0175  164.8221 C.3     1  UNL1        0.1085
      6 O         139.3633  143.3581  165.2928 O.3     1  UNL1       -0.3826
      7 C         140.3550  140.6079  164.8670 C.3     1  UNL1        0.0326
      8 C         140.6120  139.8623  163.5910 C.3     1  UNL1        0.0187
      9 C         140.3580  140.5263  162.2702 C.3     1  UNL1        0.0578
     10 C         139.8471  141.9359  162.2253 C.3     1  UNL1        0.0187
     11 C         139.5901  142.6814  163.5013 C.3     1  UNL1        0.0326
     12 H         139.3652  143.3801  166.2625 H       1  UNL1        0.2107
     13 C         140.1051  141.4223  169.2749 C.ar    1  UNL1        0.2248
     14 C         140.4862  142.7413  168.6710 C.ar    1  UNL1        0.0575
     15 C         140.3991  142.9397  167.1867 C.ar    1  UNL1        0.0043
     16 C         139.9311  141.8191  166.3064 C.ar    1  UNL1        0.0211
     17 C         139.5500  140.5000  166.9104 C.ar    1  UNL1        0.1000
     18 N         139.6370  140.3016  168.3946 N.ar    1  UNL1       -0.2104
     19 O         140.1921  141.2239  170.7592 O.3     1  UNL1       -0.4602
     20 C         142.6325  140.3439  170.6170 C.3     1  UNL1        0.0512
     21 C         141.5221  140.9726  171.4056 C.3     1  UNL1        0.2072
     22 N         141.2353  137.9808  157.9137 N.am    1  UNL1       -0.3018
     23 C         140.2049  137.9823  156.8237 C.2     1  UNL1        0.2426
     24 O         138.9175  138.7293  157.0097 O.2     1  UNL1       -0.2733
     25 H         142.0803  137.4905  157.7917 H       1  UNL1        0.1495
     26 C         140.4618  137.2367  155.5477 C.3     1  UNL1        0.1759
     27 N         140.6379  135.7473  155.5718 N.am    1  UNL1       -0.2931
     28 C         141.9750  135.1554  155.9063 C.2     1  UNL1        0.2462
     29 O         143.1360  136.0531  156.2167 O.2     1  UNL1       -0.2701
     30 H         139.8759  135.1581  155.3681 H       1  UNL1        0.1502
     31 C         142.1511  133.6660  155.9304 C.ar    1  UNL1        0.0533
     32 C         141.2692  132.7928  155.0880 C.ar    1  UNL1        0.0045
     33 C         141.4453  131.3034  155.1121 C.ar    1  UNL1        0.0001
     34 C         142.5033  130.6872  155.9787 C.ar    1  UNL1        0.0039
     35 C         143.3852  131.5604  156.8211 C.ar    1  UNL1        0.0716
     36 C         143.2091  133.0498  156.7970 C.ar    1  UNL1        0.0084
     37 C         144.4432  130.9441  157.6877 C.3     1  UNL1        0.4186
     38 F         145.5011  130.3280  158.5542 F       1  UNL1       -0.1659
     39 F         145.4488  131.9210  157.1545 F       1  UNL1       -0.1659
     40 F         143.4375  129.9673  158.2210 F       1  UNL1       -0.1659
@<TRIPOS>BOND
     1    20    21    1
     2    21    19    1
     3    19    13    1
     4    13    14   ar
     5    14    15   ar
     6    15    16   ar
     7    16     5    1
     8     5     6    1
     9     5     7    1
    10     7     8    1
    11     8     9    1
    12     9     1    1
    13     1     2    1
    14     2     3    1
    15     3    22    1
    16    22    23   am
    17    23    24    2
    18    23    26    1
    19    26    27    1
    20    27    28   am
    21    28    29    2
    22    28    31    1
    23    31    32   ar
    24    32    33   ar
    25    33    34   ar
    26    34    35   ar
    27    35    37    1
    28    37    38    1
    29    37    39    1
    30    37    40    1
    31    35    36   ar
    32     3     4    1
    33     9    10    1
    34    10    11    1
    35    16    17   ar
    36    17    18   ar
    37    18    13   ar
    38    11     5    1
    39     4     1    1
    40    36    31   ar
    41     6    12    1
    42    22    25    1
    43    27    30    1
@<TRIPOS>MOLECULE
*****
 40 43 0 0 0
SMALL
GASTEIGER

@<TRIPOS>ATOM
      1 N         139.6192  139.3986  159.5850 N.3     1  UNL1       -0.2711
      2 C         140.4977  138.3103  159.0429 C.3     1  UNL1        0.0933
      3 C         140.2403  138.7973  157.6478 C.3     1  UNL1        0.1035
      4 C         139.3618  139.8857  158.1898 C.3     1  UNL1        0.0933
      5 C         138.3019  140.6739  163.6945 C.3     1  UNL1        0.1085
      6 O         137.2698  141.5406  164.3529 O.3     1  UNL1       -0.3826
      7 C         139.4589  139.7324  163.5363 C.3     1  UNL1        0.0326
      8 C         139.8980  139.3073  162.1664 C.3     1  UNL1        0.0187
      9 C         139.1802  139.8237  160.9548 C.3     1  UNL1        0.0578
     10 C         138.0233  140.7652  161.1130 C.3     1  UNL1        0.0187
     11 C         137.5841  141.1903  162.4829 C.3     1  UNL1        0.0326
     12 H         137.3808  141.5009  165.3157 H       1  UNL1        0.2107
     13 C         139.3801  140.0278  168.0154 C.ar    1  UNL1        0.2248
     14 C         138.5029  139.0397  167.3054 C.ar    1  UNL1        0.0575
     15 C         138.1435  139.2551  165.8651 C.ar    1  UNL1        0.0043
     16 C         138.6613  140.4586  165.1348 C.ar    1  UNL1        0.0211
     17 C         139.5385  141.4467  165.8448 C.ar    1  UNL1        0.1000
     18 N         139.8979  141.2313  167.2851 N.ar    1  UNL1       -0.2104
     19 O         139.7395  139.8124  169.4557 O.3     1  UNL1       -0.4602
     20 C         142.2624  139.3678  169.0232 C.3     1  UNL1        0.0512
     21 C         141.1702  139.9130  169.8948 C.3     1  UNL1        0.2072
     22 N         140.6794  138.3722  156.2779 N.am    1  UNL1       -0.3018
     23 C         139.8103  137.4634  155.4601 C.2     1  UNL1        0.2426
     24 O         138.5021  136.9797  156.0122 O.2     1  UNL1       -0.2733
     25 H         141.5379  138.6896  155.9155 H       1  UNL1        0.1495
     26 C         140.2494  137.0382  154.0903 C.3     1  UNL1        0.1759
     27 N         140.7952  135.6582  153.8723 N.am    1  UNL1       -0.2931
     28 C         141.8921  135.1377  154.7532 C.2     1  UNL1        0.2462
     29 O         142.4430  135.9973  155.8521 O.2     1  UNL1       -0.2701
     30 H         140.4335  135.0940  153.1511 H       1  UNL1        0.1502
     31 C         142.4379  133.7576  154.5353 C.ar    1  UNL1        0.0533
     32 C         142.2662  133.0845  153.2059 C.ar    1  UNL1        0.0045
     33 C         142.8120  131.7045  152.9879 C.ar    1  UNL1        0.0001
     34 C         143.5295  130.9975  154.0994 C.ar    1  UNL1        0.0039
     35 C         143.7012  131.6706  155.4288 C.ar    1  UNL1        0.0716
     36 C         143.1554  133.0507  155.6468 C.ar    1  UNL1        0.0084
     37 C         144.4187  130.9637  156.5404 C.3     1  UNL1        0.4186
     38 F         145.1362  130.2568  157.6518 F       1  UNL1       -0.1659
     39 F         143.2318  130.0678  156.7367 F       1  UNL1       -0.1659
     40 F         145.6057  131.8597  156.3440 F       1  UNL1       -0.1659
@<TRIPOS>BOND
     1    20    21    1
     2    21    19    1
     3    19    13    1
     4    13    14   ar
     5    14    15   ar
     6    15    16   ar
     7    16     5    1
     8     5     6    1
     9     5     7    1
    10     7     8    1
    11     8     9    1
    12     9     1    1
    13     1     2    1
    14     2     3    1
    15     3    22    1
    16    22    23   am
    17    23    24    2
    18    23    26    1
    19    26    27    1
    20    27    28   am
    21    28    29    2
    22    28    31    1
    23    31    32   ar
    24    32    33   ar
    25    33    34   ar
    26    34    35   ar
    27    35    37    1
    28    37    38    1
    29    37    39    1
    30    37    40    1
    31    35    36   ar
    32     3     4    1
    33     9    10    1
    34    10    11    1
    35    16    17   ar
    36    17    18   ar
    37    18    13   ar
    38    11     5    1
    39     4     1    1
    40    36    31   ar
    41     6    12    1
    42    22    25    1
    43    27    30    1
@<TRIPOS>MOLECULE
*****
 40 43 0 0 0
SMALL
GASTEIGER

@<TRIPOS>ATOM
      1 N         143.1312  139.0971  160.9091 N.3     1  UNL1       -0.2711
      2 C         143.2392  139.5101  159.4711 C.3     1  UNL1        0.0933
      3 C         142.9422  138.1029  159.0447 C.3     1  UNL1        0.1035
      4 C         142.8342  137.6900  160.4827 C.3     1  UNL1        0.0933
      5 C         143.5323  141.2064  164.8638 C.3     1  UNL1        0.1085
      6 O         144.1831  142.4202  165.4579 O.3     1  UNL1       -0.3826
      7 C         142.7266  139.9450  164.7650 C.3     1  UNL1        0.0326
      8 C         142.5929  139.2419  163.4467 C.3     1  UNL1        0.0187
      9 C         143.2649  139.8001  162.2274 C.3     1  UNL1        0.0578
     10 C         144.0706  141.0615  162.3263 C.3     1  UNL1        0.0187
     11 C         144.2043  141.7646  163.6445 C.3     1  UNL1        0.0326
     12 H         143.9773  142.4668  166.4047 H       1  UNL1        0.2107
     13 C         142.1944  140.7963  169.1407 C.ar    1  UNL1        0.2248
     14 C         142.4453  142.1566  168.5605 C.ar    1  UNL1        0.0575
     15 C         142.8913  142.2933  167.1349 C.ar    1  UNL1        0.0043
     16 C         143.0863  141.0697  166.2895 C.ar    1  UNL1        0.0211
     17 C         142.8354  139.7094  166.8697 C.ar    1  UNL1        0.1000
     18 N         142.3894  139.5728  168.2953 N.ar    1  UNL1       -0.2104
     19 O         141.7484  140.6597  170.5664 O.3     1  UNL1       -0.4602
     20 C         139.2380  140.6006  169.8998 C.3     1  UNL1        0.0512
     21 C         140.3309  140.2788  170.8755 C.3     1  UNL1        0.2072
     22 N         142.8086  137.3999  157.7264 N.am    1  UNL1       -0.3018
     23 C         141.4639  137.2821  157.0722 C.2     1  UNL1        0.2426
     24 O         140.2529  137.8673  157.7363 O.2     1  UNL1       -0.2733
     25 H         143.6034  137.0159  157.2905 H       1  UNL1        0.1495
     26 C         141.3302  136.5791  155.7538 C.3     1  UNL1        0.1759
     27 N         141.4584  135.0863  155.6836 N.am    1  UNL1       -0.2931
     28 C         142.8161  134.4487  155.6952 C.2     1  UNL1        0.2462
     29 O         144.0456  135.3041  155.7770 O.2     1  UNL1       -0.2701
     30 H         140.6514  134.5249  155.6299 H       1  UNL1        0.1502
     31 C         142.9443  132.9559  155.6249 C.ar    1  UNL1        0.0533
     32 C         144.2873  132.3096  155.7942 C.ar    1  UNL1        0.0045
     33 C         144.4154  130.8168  155.7239 C.ar    1  UNL1        0.0001
     34 C         143.2005  129.9702  155.4844 C.ar    1  UNL1        0.0039
     35 C         141.8575  130.6164  155.3151 C.ar    1  UNL1        0.0716
     36 C         141.7294  132.1093  155.3854 C.ar    1  UNL1        0.0084
     37 C         140.6426  129.7698  155.0755 C.3     1  UNL1        0.4186
     38 F         139.4278  128.9233  154.8360 F       1  UNL1       -0.1659
     39 F         141.2922  128.6314  155.8049 F       1  UNL1       -0.1659
     40 F         139.9931  130.9083  154.3462 F       1  UNL1       -0.1659
@<TRIPOS>BOND
     1    20    21    1
     2    21    19    1
     3    19    13    1
     4    13    14   ar
     5    14    15   ar
     6    15    16   ar
     7    16     5    1
     8     5     6    1
     9     5     7    1
    10     7     8    1
    11     8     9    1
    12     9     1    1
    13     1     2    1
    14     2     3    1
    15     3    22    1
    16    22    23   am
    17    23    24    2
    18    23    26    1
    19    26    27    1
    20    27    28   am
    21    28    29    2
    22    28    31    1
    23    31    32   ar
    24    32    33   ar
    25    33    34   ar
    26    34    35   ar
    27    35    37    1
    28    37    38    1
    29    37    39    1
    30    37    40    1
    31    35    36   ar
    32     3     4    1
    33     9    10    1
    34    10    11    1
    35    16    17   ar
    36    17    18   ar
    37    18    13   ar
    38    11     5    1
    39     4     1    1
    40    36    31   ar
    41     6    12    1
    42    22    25    1
    43    27    30    1
@<TRIPOS>MOLECULE
*****
 40 43 0 0 0
SMALL
GASTEIGER

@<TRIPOS>ATOM
      1 N         143.3849  140.3723  160.7374 N.3     1  UNL1       -0.2711
      2 C         142.9374  140.7722  159.3627 C.3     1  UNL1        0.0933
      3 C         143.3434  139.4265  158.8390 C.3     1  UNL1        0.1035
      4 C         143.7910  139.0266  160.2137 C.3     1  UNL1        0.0933
      5 C         143.4730  142.3790  164.7642 C.3     1  UNL1        0.1085
      6 O         144.3260  143.3223  165.5595 O.3     1  UNL1       -0.3826
      7 C         142.3394  141.4640  164.4069 C.3     1  UNL1        0.0326
      8 C         142.3100  140.7951  163.0646 C.3     1  UNL1        0.0187
      9 C         143.4142  141.0412  162.0797 C.3     1  UNL1        0.0578
     10 C         144.5479  141.9562  162.4370 C.3     1  UNL1        0.0187
     11 C         144.5772  142.6251  163.7793 C.3     1  UNL1        0.0326
     12 H         143.9180  143.4747  166.4262 H       1  UNL1        0.2107
     13 C         141.0491  142.6236  168.5477 C.ar    1  UNL1        0.2248
     14 C         140.3803  142.7952  167.2160 C.ar    1  UNL1        0.0575
     15 C         141.1883  142.7137  165.9549 C.ar    1  UNL1        0.0043
     16 C         142.6651  142.4605  166.0254 C.ar    1  UNL1        0.0211
     17 C         143.3338  142.2889  167.3570 C.ar    1  UNL1        0.1000
     18 N         142.5258  142.3705  168.6181 N.ar    1  UNL1       -0.2104
     19 O         140.2411  142.7051  169.8088 O.3     1  UNL1       -0.4602
     20 C         139.1251  140.3622  169.9312 C.3     1  UNL1        0.0512
     21 C         139.9217  141.4569  170.5769 C.3     1  UNL1        0.2072
     22 N         143.3141  138.7577  157.4967 N.am    1  UNL1       -0.3018
     23 C         144.2669  139.1906  156.4221 C.2     1  UNL1        0.2426
     24 O         145.2490  140.2923  156.6898 O.2     1  UNL1       -0.2733
     25 H         142.6695  138.0346  157.3210 H       1  UNL1        0.1495
     26 C         144.2375  138.5218  155.0797 C.3     1  UNL1        0.1759
     27 N         144.3354  137.0281  154.9838 N.am    1  UNL1       -0.2931
     28 C         143.1351  136.1775  155.2769 C.2     1  UNL1        0.2462
     29 O         141.8371  136.8207  155.6659 O.2     1  UNL1       -0.2701
     30 H         145.1874  136.6059  154.7285 H       1  UNL1        0.1502
     31 C         143.2330  134.6837  155.1809 C.ar    1  UNL1        0.0533
     32 C         142.6446  133.9678  154.0015 C.ar    1  UNL1        0.0045
     33 C         142.7425  132.4741  153.9055 C.ar    1  UNL1        0.0001
     34 C         143.4287  131.6963  154.9891 C.ar    1  UNL1        0.0039
     35 C         144.0171  132.4122  156.1686 C.ar    1  UNL1        0.0716
     36 C         143.9192  133.9059  156.2645 C.ar    1  UNL1        0.0084
     37 C         144.7033  131.6344  157.2522 C.3     1  UNL1        0.4186
     38 F         145.3895  130.8567  158.3357 F       1  UNL1       -0.1659
     39 F         144.1368  130.3613  156.6971 F       1  UNL1       -0.1659
     40 F         145.2698  132.9076  157.8073 F       1  UNL1       -0.1659
@<TRIPOS>BOND
     1    20    21    1
     2    21    19    1
     3    19    13    1
     4    13    14   ar
     5    14    15   ar
     6    15    16   ar
     7    16     5    1
     8     5     6    1
     9     5     7    1
    10     7     8    1
    11     8     9    1
    12     9     1    1
    13     1     2    1
    14     2     3    1
    15     3    22    1
    16    22    23   am
    17    23    24    2
    18    23    26    1
    19    26    27    1
    20    27    28   am
    21    28    29    2
    22    28    31    1
    23    31    32   ar
    24    32    33   ar
    25    33    34   ar
    26    34    35   ar
    27    35    37    1
    28    37    38    1
    29    37    39    1
    30    37    40    1
    31    35    36   ar
    32     3     4    1
    33     9    10    1
    34    10    11    1
    35    16    17   ar
    36    17    18   ar
    37    18    13   ar
    38    11     5    1
    39     4     1    1
    40    36    31   ar
    41     6    12    1
    42    22    25    1
    43    27    30    1
@<TRIPOS>MOLECULE
*****
 40 43 0 0 0
SMALL
GASTEIGER

@<TRIPOS>ATOM
      1 N         143.0737  139.9222  159.3397 N.3     1  UNL1       -0.2711
      2 C         143.2854  141.4041  159.4350 C.3     1  UNL1        0.0933
      3 C         143.0621  141.3406  160.9170 C.3     1  UNL1        0.1035
      4 C         142.8504  139.8587  160.8216 C.3     1  UNL1        0.0933
      5 C         143.0986  136.9136  155.9934 C.3     1  UNL1        0.1085
      6 O         143.3608  136.8376  154.5184 O.3     1  UNL1       -0.3826
      7 C         142.7497  136.4823  157.3870 C.3     1  UNL1        0.0326
      8 C         142.7415  137.4852  158.5025 C.3     1  UNL1        0.0187
      9 C         143.0820  138.9193  158.2243 C.3     1  UNL1        0.0578
     10 C         143.4308  139.3505  156.8306 C.3     1  UNL1        0.0187
     11 C         143.4391  138.3477  155.7151 C.3     1  UNL1        0.0326
     12 H         143.2346  135.9252  154.2142 H       1  UNL1        0.2107
     13 C         142.3501  132.5322  155.2913 C.ar    1  UNL1        0.2248
     14 C         141.3027  133.5405  154.9224 C.ar    1  UNL1        0.0575
     15 C         141.5522  135.0010  155.1564 C.ar    1  UNL1        0.0043
     16 C         142.8491  135.4531  155.7593 C.ar    1  UNL1        0.0211
     17 C         143.8965  134.4448  156.1282 C.ar    1  UNL1        0.1000
     18 N         143.6470  132.9843  155.8942 N.ar    1  UNL1       -0.2104
     19 O         142.1006  131.0717  155.0573 O.3     1  UNL1       -0.4602
     20 C         143.2558  131.2321  152.7357 C.3     1  UNL1        0.0512
     21 C         142.4633  130.4503  153.7411 C.3     1  UNL1        0.2072
     22 N         143.0538  142.3436  162.0323 N.am    1  UNL1       -0.3018
     23 C         144.2954  142.5758  162.8413 C.2     1  UNL1        0.2426
     24 O         145.5453  141.8051  162.5349 O.2     1  UNL1       -0.2733
     25 H         142.2335  142.8495  162.2334 H       1  UNL1        0.1495
     26 C         144.2872  143.5788  163.9567 C.3     1  UNL1        0.1759
     27 N         144.0095  143.1350  165.3623 N.am    1  UNL1       -0.2931
     28 C         142.6421  142.6462  165.7382 C.2     1  UNL1        0.2462
     29 O         141.5524  142.6012  164.7083 O.2     1  UNL1       -0.2701
     30 H         144.7247  143.1645  166.0382 H       1  UNL1        0.1502
     31 C         142.3644  142.2023  167.1439 C.ar    1  UNL1        0.0533
     32 C         143.4120  142.3702  168.2041 C.ar    1  UNL1        0.0045
     33 C         143.1343  141.9264  169.6098 C.ar    1  UNL1        0.0001
     34 C         141.8089  141.3147  169.9551 C.ar    1  UNL1        0.0039
     35 C         140.7613  141.1468  168.8949 C.ar    1  UNL1        0.0716
     36 C         141.0390  141.5907  167.4892 C.ar    1  UNL1        0.0084
     37 C         139.4359  140.5351  169.2402 C.3     1  UNL1        0.4186
     38 F         138.1106  139.9235  169.5856 F       1  UNL1       -0.1659
     39 F         139.5955  139.5549  168.1162 F       1  UNL1       -0.1659
     40 F         139.2764  141.5155  170.3643 F       1  UNL1       -0.1659
@<TRIPOS>BOND
     1    20    21    1
     2    21    19    1
     3    19    13    1
     4    13    14   ar
     5    14    15   ar
     6    15    16   ar
     7    16     5    1
     8     5     6    1
     9     5     7    1
    10     7     8    1
    11     8     9    1
    12     9     1    1
    13     1     2    1
    14     2     3    1
    15     3    22    1
    16    22    23   am
    17    23    24    2
    18    23    26    1
    19    26    27    1
    20    27    28   am
    21    28    29    2
    22    28    31    1
    23    31    32   ar
    24    32    33   ar
    25    33    34   ar
    26    34    35   ar
    27    35    37    1
    28    37    38    1
    29    37    39    1
    30    37    40    1
    31    35    36   ar
    32     3     4    1
    33     9    10    1
    34    10    11    1
    35    16    17   ar
    36    17    18   ar
    37    18    13   ar
    38    11     5    1
    39     4     1    1
    40    36    31   ar
    41     6    12    1
    42    22    25    1
    43    27    30    1
@<TRIPOS>MOLECULE
*****
 40 43 0 0 0
SMALL
GASTEIGER

@<TRIPOS>ATOM
      1 N         140.6078  143.4048  159.1233 N.3     1  UNL1       -0.2711
      2 C         141.1780  142.0190  159.1910 C.3     1  UNL1        0.0933
      3 C         141.3081  142.1452  160.6800 C.3     1  UNL1        0.1035
      4 C         140.7378  143.5309  160.6124 C.3     1  UNL1        0.0933
      5 C         139.1222  146.0762  155.8209 C.3     1  UNL1        0.1085
      6 O         138.2717  146.0134  154.5869 O.3     1  UNL1       -0.3826
      7 C         140.0046  146.6347  156.8977 C.3     1  UNL1        0.0326
      8 C         140.4998  145.7442  157.9985 C.3     1  UNL1        0.0187
      9 C         140.1126  144.2953  158.0226 C.3     1  UNL1        0.0578
     10 C         139.2302  143.7368  156.9458 C.3     1  UNL1        0.0187
     11 C         138.7350  144.6273  155.8449 C.3     1  UNL1        0.0326
     12 H         138.2366  146.8901  154.1734 H       1  UNL1        0.2107
     13 C         139.3977  150.3576  154.4631 C.ar    1  UNL1        0.2248
     14 C         140.0499  149.2723  153.6590 C.ar    1  UNL1        0.0575
     15 C         139.9581  147.8452  154.1116 C.ar    1  UNL1        0.0043
     16 C         139.2140  147.5033  155.3683 C.ar    1  UNL1        0.0211
     17 C         138.5617  148.5886  156.1724 C.ar    1  UNL1        0.1000
     18 N         138.6536  150.0158  155.7198 N.ar    1  UNL1       -0.2104
     19 O         139.4895  151.7848  154.0105 O.3     1  UNL1       -0.4602
     20 C         138.0299  153.8709  153.4931 C.3     1  UNL1        0.0512
     21 C         138.4416  152.7731  154.4288 C.3     1  UNL1        0.2072
     22 N         141.8033  141.2546  161.7808 N.am    1  UNL1       -0.3018
     23 C         143.2687  141.1951  162.0954 C.2     1  UNL1        0.2426
     24 O         144.2389  142.0262  161.3093 O.2     1  UNL1       -0.2733
     25 H         141.1665  140.7091  162.2967 H       1  UNL1        0.1495
     26 C         143.7639  140.3045  163.1962 C.3     1  UNL1        0.1759
     27 N         143.2244  140.4605  164.5871 N.am    1  UNL1       -0.2931
     28 C         142.2041  139.4924  165.1087 C.2     1  UNL1        0.2462
     29 O         141.7234  138.3685  164.2393 O.2     1  UNL1       -0.2701
     30 H         143.5399  141.1982  165.1576 H       1  UNL1        0.1502
     31 C         141.6646  139.6484  166.4996 C.ar    1  UNL1        0.0533
     32 C         140.2146  139.9695  166.7099 C.ar    1  UNL1        0.0045
     33 C         139.6751  140.1254  168.1008 C.ar    1  UNL1        0.0001
     34 C         140.5857  139.9603  169.2814 C.ar    1  UNL1        0.0039
     35 C         142.0357  139.6393  169.0710 C.ar    1  UNL1        0.0716
     36 C         142.5752  139.4833  167.6801 C.ar    1  UNL1        0.0084
     37 C         142.9463  139.4742  170.2515 C.3     1  UNL1        0.4186
     38 F         143.8568  139.3091  171.4320 F       1  UNL1       -0.1659
     39 F         143.2881  140.9334  170.1918 F       1  UNL1       -0.1659
     40 F         142.6043  138.0149  170.3112 F       1  UNL1       -0.1659
@<TRIPOS>BOND
     1    20    21    1
     2    21    19    1
     3    19    13    1
     4    13    14   ar
     5    14    15   ar
     6    15    16   ar
     7    16     5    1
     8     5     6    1
     9     5     7    1
    10     7     8    1
    11     8     9    1
    12     9     1    1
    13     1     2    1
    14     2     3    1
    15     3    22    1
    16    22    23   am
    17    23    24    2
    18    23    26    1
    19    26    27    1
    20    27    28   am
    21    28    29    2
    22    28    31    1
    23    31    32   ar
    24    32    33   ar
    25    33    34   ar
    26    34    35   ar
    27    35    37    1
    28    37    38    1
    29    37    39    1
    30    37    40    1
    31    35    36   ar
    32     3     4    1
    33     9    10    1
    34    10    11    1
    35    16    17   ar
    36    17    18   ar
    37    18    13   ar
    38    11     5    1
    39     4     1    1
    40    36    31   ar
    41     6    12    1
    42    22    25    1
    43    27    30    1
@<TRIPOS>MOLECULE
*****
 40 43 0 0 0
SMALL
GASTEIGER

@<TRIPOS>ATOM
      1 N         140.6595  143.4847  159.1408 N.3     1  UNL1       -0.2711
      2 C         141.1470  143.7278  160.5384 C.3     1  UNL1        0.0933
      3 C         141.3625  142.2545  160.7196 C.3     1  UNL1        0.1035
      4 C         140.8750  142.0113  159.3220 C.3     1  UNL1        0.0933
      5 C         139.1683  146.0944  155.7918 C.3     1  UNL1        0.1085
      6 O         138.3786  145.9931  154.5206 O.3     1  UNL1       -0.3826
      7 C         139.9678  146.6937  156.9106 C.3     1  UNL1        0.0326
      8 C         140.4648  145.8238  158.0270 C.3     1  UNL1        0.0187
      9 C         140.1625  144.3546  158.0245 C.3     1  UNL1        0.0578
     10 C         139.3630  143.7553  156.9057 C.3     1  UNL1        0.0187
     11 C         138.8659  144.6252  155.7894 C.3     1  UNL1        0.0326
     12 H         138.3107  146.8700  154.1114 H       1  UNL1        0.2107
     13 C         139.2527  150.3965  154.4747 C.ar    1  UNL1        0.2248
     14 C         138.5501  150.0142  155.7436 C.ar    1  UNL1        0.0575
     15 C         138.5219  148.5802  156.1827 C.ar    1  UNL1        0.0043
     16 C         139.1964  147.5284  155.3528 C.ar    1  UNL1        0.0211
     17 C         139.8990  147.9106  154.0839 C.ar    1  UNL1        0.1000
     18 N         139.9272  149.3447  153.6448 N.ar    1  UNL1       -0.2104
     19 O         139.2808  151.8305  154.0357 O.3     1  UNL1       -0.4602
     20 C         138.6633  154.3190  154.4551 C.3     1  UNL1        0.0512
     21 C         138.5352  152.8696  154.8194 C.3     1  UNL1        0.2072
     22 N         141.8595  141.3845  161.8359 N.am    1  UNL1       -0.3018
     23 C         143.3302  141.2913  162.1162 C.2     1  UNL1        0.2426
     24 O         144.3037  142.0679  161.2801 O.2     1  UNL1       -0.2733
     25 H         141.2205  140.8748  162.3847 H       1  UNL1        0.1495
     26 C         143.8272  140.4214  163.2325 C.3     1  UNL1        0.1759
     27 N         143.5857  140.8198  164.6583 N.am    1  UNL1       -0.2931
     28 C         142.2404  140.5944  165.2824 C.2     1  UNL1        0.2462
     29 O         141.1368  139.9706  164.4806 O.2     1  UNL1       -0.2701
     30 H         144.3100  141.2293  165.1845 H       1  UNL1        0.1502
     31 C         141.9988  140.9929  166.7082 C.ar    1  UNL1        0.0533
     32 C         142.9899  141.8637  167.4217 C.ar    1  UNL1        0.0045
     33 C         142.7484  142.2622  168.8475 C.ar    1  UNL1        0.0001
     34 C         141.5156  141.7898  169.5597 C.ar    1  UNL1        0.0039
     35 C         140.5245  140.9190  168.8461 C.ar    1  UNL1        0.0716
     36 C         140.7660  140.5205  167.4204 C.ar    1  UNL1        0.0084
     37 C         139.2917  140.4465  169.5583 C.3     1  UNL1        0.4186
     38 F         138.0591  139.9741  170.2705 F       1  UNL1       -0.1659
     39 F         139.7711  141.0993  170.8209 F       1  UNL1       -0.1659
     40 F         138.8124  139.7938  168.2957 F       1  UNL1       -0.1659
@<TRIPOS>BOND
     1    20    21    1
     2    21    19    1
     3    19    13    1
     4    13    14   ar
     5    14    15   ar
     6    15    16   ar
     7    16     5    1
     8     5     6    1
     9     5     7    1
    10     7     8    1
    11     8     9    1
    12     9     1    1
    13     1     2    1
    14     2     3    1
    15     3    22    1
    16    22    23   am
    17    23    24    2
    18    23    26    1
    19    26    27    1
    20    27    28   am
    21    28    29    2
    22    28    31    1
    23    31    32   ar
    24    32    33   ar
    25    33    34   ar
    26    34    35   ar
    27    35    37    1
    28    37    38    1
    29    37    39    1
    30    37    40    1
    31    35    36   ar
    32     3     4    1
    33     9    10    1
    34    10    11    1
    35    16    17   ar
    36    17    18   ar
    37    18    13   ar
    38    11     5    1
    39     4     1    1
    40    36    31   ar
    41     6    12    1
    42    22    25    1
    43    27    30    1
