@<TRIPOS>MOLECULE
*****
 32 35 0 0 0
SMALL
GASTEIGER

@<TRIPOS>ATOM
      1 N         140.9924  144.3097  158.6237 N.ar    1  UNL1       -0.2900
      2 C         140.6193  144.5742  160.0523 C.ar    1  UNL1        0.0891
      3 C         141.5352  144.1423  161.1589 C.ar    1  UNL1        0.1098
      4 C         142.8242  143.4460  160.8371 C.ar    1  UNL1        0.2043
      5 O         143.7400  143.0142  161.9437 O.2     1  UNL1       -0.2863
      6 C         143.1974  143.1816  159.4084 C.ar    1  UNL1        0.0736
      7 C         144.4863  142.4853  159.0866 C.ar    1  UNL1        0.0078
      8 C         144.8595  142.2209  157.6580 C.ar    1  UNL1        0.0209
      9 C         143.9436  142.6527  156.5513 C.ar    1  UNL1        0.1005
     10 N         142.6546  143.3490  156.8732 N.ar    1  UNL1       -0.2263
     11 C         142.2815  143.6134  158.3018 C.ar    1  UNL1        0.1507
     12 C         139.1503  146.6044  155.9608 C.ar    1  UNL1        0.0014
     13 C         138.2448  145.6052  155.3037 C.ar    1  UNL1        0.0001
     14 C         138.2552  144.1742  155.7533 C.ar    1  UNL1        0.0015
     15 C         139.1711  143.7424  156.8600 C.ar    1  UNL1        0.0176
     16 C         140.0766  144.7415  157.5171 C.ar    1  UNL1        0.0654
     17 C         140.0662  146.1726  157.0675 C.ar    1  UNL1        0.0176
     18 C         139.1191  150.8975  154.6121 C.ar    1  UNL1        0.0252
     19 C         138.4609  150.5123  155.9038 C.ar    1  UNL1        0.0061
     20 C         138.4713  149.0812  156.3533 C.ar    1  UNL1        0.0005
     21 C         139.1399  148.0354  155.5112 C.ar    1  UNL1        0.0001
     22 C         139.7981  148.4206  154.2196 C.ar    1  UNL1        0.0005
     23 C         139.7877  149.8515  153.7700 C.ar    1  UNL1        0.0061
     24 C         138.4046  153.3676  154.9839 C.3     1  UNL1        0.0742
     25 S         139.1087  152.3284  154.1625 S.3     1  UNL1       -0.1127
     26 C         141.1620  144.4068  162.5875 C.2     1  UNL1        0.2504
     27 O         141.7903  145.5504  163.3274 O.2     1  UNL1       -0.2700
     28 N         140.1605  143.5277  163.2762 N.am    1  UNL1       -0.3024
     29 H         139.7482  142.7771  162.7906 H       1  UNL1        0.1497
     30 C         139.7874  143.7922  164.7047 C.3     1  UNL1        0.0720
     31 C         138.6673  144.7373  165.0247 C.3     1  UNL1        0.0213
     32 C         140.5343  143.1117  165.8133 C.3     1  UNL1        0.0213
@<TRIPOS>BOND
     1    24    25    1
     2    25    18    1
     3    18    19   ar
     4    19    20   ar
     5    20    21   ar
     6    21    12    1
     7    12    13   ar
     8    13    14   ar
     9    14    15   ar
    10    15    16   ar
    11    16     1    1
    12     1     2   ar
    13     2     3   ar
    14     3    26    1
    15    26    27    2
    16    26    28   am
    17    28    30    1
    18    30    31    1
    19    30    32    1
    20     3     4   ar
    21     4     5    2
    22     4     6   ar
    23     6     7   ar
    24     7     8   ar
    25     8     9   ar
    26     9    10   ar
    27    10    11   ar
    28    16    17   ar
    29    21    22   ar
    30    22    23   ar
    31    23    18   ar
    32    17    12   ar
    33    11     1   ar
    34    11     6   ar
    35    28    29    1
@<TRIPOS>MOLECULE
*****
 32 35 0 0 0
SMALL
GASTEIGER

@<TRIPOS>ATOM
      1 N         141.1748  144.3389  157.7692 N.ar    1  UNL1       -0.2900
      2 C         142.2997  143.5338  157.1892 C.ar    1  UNL1        0.0891
      3 C         143.3627  142.9745  158.0877 C.ar    1  UNL1        0.1098
      4 C         143.3008  143.2203  159.5661 C.ar    1  UNL1        0.2043
      5 O         144.3639  142.6611  160.4645 O.2     1  UNL1       -0.2863
      6 C         142.1759  144.0254  160.1461 C.ar    1  UNL1        0.0736
      7 C         142.1140  144.2712  161.6245 C.ar    1  UNL1        0.0078
      8 C         140.9891  145.0763  162.2045 C.ar    1  UNL1        0.0209
      9 C         139.9261  145.6356  161.3060 C.ar    1  UNL1        0.1005
     10 N         139.9879  145.3898  159.8276 N.ar    1  UNL1       -0.2263
     11 C         141.1128  144.5847  159.2477 C.ar    1  UNL1        0.1507
     12 C         139.0739  146.9087  155.5937 C.ar    1  UNL1        0.0014
     13 C         137.9857  146.0167  155.0739 C.ar    1  UNL1        0.0001
     14 C         137.9605  144.5655  155.4525 C.ar    1  UNL1        0.0015
     15 C         139.0236  144.0062  156.3509 C.ar    1  UNL1        0.0176
     16 C         140.1117  144.8981  156.8708 C.ar    1  UNL1        0.0654
     17 C         140.1369  146.3494  156.4922 C.ar    1  UNL1        0.0176
     18 C         139.1493  151.2623  154.4580 C.ar    1  UNL1        0.0252
     19 C         138.4665  150.8285  155.7211 C.ar    1  UNL1        0.0061
     20 C         138.4413  149.3772  156.0997 C.ar    1  UNL1        0.0005
     21 C         139.0990  148.3599  155.2152 C.ar    1  UNL1        0.0001
     22 C         139.7819  148.7937  153.9520 C.ar    1  UNL1        0.0005
     23 C         139.8070  150.2449  153.5734 C.ar    1  UNL1        0.0061
     24 C         138.4509  153.7213  154.9227 C.3     1  UNL1        0.0742
     25 S         139.1744  152.7135  154.0794 S.3     1  UNL1       -0.1127
     26 C         144.4877  142.1694  157.5076 C.2     1  UNL1        0.2504
     27 O         144.6543  140.7288  157.8909 O.2     1  UNL1       -0.2700
     28 N         145.4459  142.8050  156.5444 N.am    1  UNL1       -0.3024
     29 H         145.3365  143.7505  156.2929 H       1  UNL1        0.1497
     30 C         146.5708  141.9999  155.9644 C.3     1  UNL1        0.0720
     31 C         146.2796  140.8996  154.9873 C.3     1  UNL1        0.0213
     32 C         147.9868  142.2950  156.3615 C.3     1  UNL1        0.0213
@<TRIPOS>BOND
     1    24    25    1
     2    25    18    1
     3    18    19   ar
     4    19    20   ar
     5    20    21   ar
     6    21    12    1
     7    12    13   ar
     8    13    14   ar
     9    14    15   ar
    10    15    16   ar
    11    16     1    1
    12     1     2   ar
    13     2     3   ar
    14     3    26    1
    15    26    27    2
    16    26    28   am
    17    28    30    1
    18    30    31    1
    19    30    32    1
    20     3     4   ar
    21     4     5    2
    22     4     6   ar
    23     6     7   ar
    24     7     8   ar
    25     8     9   ar
    26     9    10   ar
    27    10    11   ar
    28    16    17   ar
    29    21    22   ar
    30    22    23   ar
    31    23    18   ar
    32    17    12   ar
    33    11     1   ar
    34    11     6   ar
    35    28    29    1
@<TRIPOS>MOLECULE
*****
 32 35 0 0 0
SMALL
GASTEIGER

@<TRIPOS>ATOM
      1 N         142.0187  140.9874  161.3562 N.ar    1  UNL1       -0.2900
      2 C         143.0407  140.7430  160.2859 C.ar    1  UNL1        0.0891
      3 C         143.3673  141.8249  159.2996 C.ar    1  UNL1        0.1098
      4 C         142.6719  143.1513  159.3836 C.ar    1  UNL1        0.2043
      5 O         142.9985  144.2332  158.3973 O.2     1  UNL1       -0.2863
      6 C         141.6498  143.3958  160.4540 C.ar    1  UNL1        0.0736
      7 C         140.9544  144.7221  160.5381 C.ar    1  UNL1        0.0078
      8 C         139.9324  144.9666  161.6084 C.ar    1  UNL1        0.0209
      9 C         139.6058  143.8846  162.5947 C.ar    1  UNL1        0.1005
     10 N         140.3012  142.5583  162.5107 N.ar    1  UNL1       -0.2263
     11 C         141.3232  142.3139  161.4403 C.ar    1  UNL1        0.1507
     12 C         141.3024  139.1386  164.7941 C.ar    1  UNL1        0.0014
     13 C         141.0390  137.7417  164.3151 C.ar    1  UNL1        0.0001
     14 C         141.1021  137.4267  162.8500 C.ar    1  UNL1        0.0015
     15 C         141.4287  138.5087  161.8637 C.ar    1  UNL1        0.0176
     16 C         141.6921  139.9055  162.3425 C.ar    1  UNL1        0.0654
     17 C         141.6289  140.2205  163.8078 C.ar    1  UNL1        0.0176
     18 C         141.1128  140.0834  169.1897 C.ar    1  UNL1        0.0252
     19 C         142.4229  139.7184  168.5568 C.ar    1  UNL1        0.0061
     20 C         142.4860  139.4035  167.0916 C.ar    1  UNL1        0.0005
     21 C         141.2392  139.4535  166.2593 C.ar    1  UNL1        0.0001
     22 C         139.9291  139.8186  166.8921 C.ar    1  UNL1        0.0005
     23 C         139.8659  140.1335  168.3573 C.ar    1  UNL1        0.0061
     24 C         141.7112  141.6358  171.1852 C.3     1  UNL1        0.0742
     25 S         141.0496  140.3984  170.6548 S.3     1  UNL1       -0.1127
     26 C         144.3894  141.5804  158.2292 C.2     1  UNL1        0.2504
     27 O         144.6560  140.1836  157.7518 O.2     1  UNL1       -0.2700
     28 N         145.1449  142.7327  157.6363 N.am    1  UNL1       -0.3024
     29 H         144.9699  143.6494  157.9496 H       1  UNL1        0.1497
     30 C         146.1669  142.4881  156.5660 C.3     1  UNL1        0.0720
     31 C         145.7272  142.1433  155.1739 C.3     1  UNL1        0.0213
     32 C         147.6285  142.5884  156.8877 C.3     1  UNL1        0.0213
@<TRIPOS>BOND
     1    24    25    1
     2    25    18    1
     3    18    19   ar
     4    19    20   ar
     5    20    21   ar
     6    21    12    1
     7    12    13   ar
     8    13    14   ar
     9    14    15   ar
    10    15    16   ar
    11    16     1    1
    12     1     2   ar
    13     2     3   ar
    14     3    26    1
    15    26    27    2
    16    26    28   am
    17    28    30    1
    18    30    31    1
    19    30    32    1
    20     3     4   ar
    21     4     5    2
    22     4     6   ar
    23     6     7   ar
    24     7     8   ar
    25     8     9   ar
    26     9    10   ar
    27    10    11   ar
    28    16    17   ar
    29    21    22   ar
    30    22    23   ar
    31    23    18   ar
    32    17    12   ar
    33    11     1   ar
    34    11     6   ar
    35    28    29    1
@<TRIPOS>MOLECULE
*****
 32 35 0 0 0
SMALL
GASTEIGER

@<TRIPOS>ATOM
      1 N         143.6367  137.9031  155.8540 N.ar    1  UNL1       -0.2900
      2 C         144.7395  138.6288  155.1418 C.ar    1  UNL1        0.0891
      3 C         145.1779  139.9814  155.6193 C.ar    1  UNL1        0.1098
      4 C         144.5136  140.6084  156.8091 C.ar    1  UNL1        0.2043
      5 O         144.9521  141.9610  157.2867 O.2     1  UNL1       -0.2863
      6 C         143.4108  139.8827  157.5214 C.ar    1  UNL1        0.0736
      7 C         142.7465  140.5096  158.7111 C.ar    1  UNL1        0.0078
      8 C         141.6438  139.7840  159.4233 C.ar    1  UNL1        0.0209
      9 C         141.2053  138.4313  158.9458 C.ar    1  UNL1        0.1005
     10 N         141.8696  137.8043  157.7560 N.ar    1  UNL1       -0.2263
     11 C         142.9724  138.5300  157.0438 C.ar    1  UNL1        0.1507
     12 C         143.1609  133.9679  155.6583 C.ar    1  UNL1        0.0014
     13 C         142.3213  133.8451  154.4213 C.ar    1  UNL1        0.0001
     14 C         141.9203  135.0749  153.6619 C.ar    1  UNL1        0.0015
     15 C         142.3588  136.4275  154.1394 C.ar    1  UNL1        0.0176
     16 C         143.1983  136.5504  155.3764 C.ar    1  UNL1        0.0654
     17 C         143.5993  135.3206  156.1359 C.ar    1  UNL1        0.0176
     18 C         144.3640  130.2785  157.9366 C.ar    1  UNL1        0.0252
     19 C         145.1726  131.5354  158.0637 C.ar    1  UNL1        0.0061
     20 C         144.7715  132.7653  157.3042 C.ar    1  UNL1        0.0005
     21 C         143.5619  132.7381  156.4177 C.ar    1  UNL1        0.0001
     22 C         142.7532  131.4812  156.2906 C.ar    1  UNL1        0.0005
     23 C         143.1543  130.2514  157.0500 C.ar    1  UNL1        0.0061
     24 C         143.8244  128.4450  159.6966 C.3     1  UNL1        0.0742
     25 S         144.7650  129.0487  158.6960 S.3     1  UNL1       -0.1127
     26 C         146.2807  140.7071  154.9071 C.2     1  UNL1        0.2504
     27 O         146.3101  140.7411  153.4077 O.2     1  UNL1       -0.2700
     28 N         147.3541  141.3988  155.6941 N.am    1  UNL1       -0.3024
     29 H         147.3347  141.3765  156.6782 H       1  UNL1        0.1497
     30 C         148.4568  142.1244  154.9819 C.3     1  UNL1        0.0720
     31 C         149.8796  141.6819  155.1544 C.3     1  UNL1        0.0213
     32 C         148.1367  143.2926  154.0971 C.3     1  UNL1        0.0213
@<TRIPOS>BOND
     1    24    25    1
     2    25    18    1
     3    18    19   ar
     4    19    20   ar
     5    20    21   ar
     6    21    12    1
     7    12    13   ar
     8    13    14   ar
     9    14    15   ar
    10    15    16   ar
    11    16     1    1
    12     1     2   ar
    13     2     3   ar
    14     3    26    1
    15    26    27    2
    16    26    28   am
    17    28    30    1
    18    30    31    1
    19    30    32    1
    20     3     4   ar
    21     4     5    2
    22     4     6   ar
    23     6     7   ar
    24     7     8   ar
    25     8     9   ar
    26     9    10   ar
    27    10    11   ar
    28    16    17   ar
    29    21    22   ar
    30    22    23   ar
    31    23    18   ar
    32    17    12   ar
    33    11     1   ar
    34    11     6   ar
    35    28    29    1
@<TRIPOS>MOLECULE
*****
 32 35 0 0 0
SMALL
GASTEIGER

@<TRIPOS>ATOM
      1 N         138.9900  140.9224  160.9869 N.ar    1  UNL1       -0.2900
      2 C         138.2800  140.4758  159.7434 C.ar    1  UNL1        0.0891
      3 C         138.2441  141.3685  158.5385 C.ar    1  UNL1        0.1098
      4 C         138.9183  142.7079  158.5772 C.ar    1  UNL1        0.2043
      5 O         138.8825  143.6007  157.3723 O.2     1  UNL1       -0.2863
      6 C         139.6285  143.1546  159.8207 C.ar    1  UNL1        0.0736
      7 C         140.3027  144.4939  159.8594 C.ar    1  UNL1        0.0078
      8 C         141.0127  144.9405  161.1028 C.ar    1  UNL1        0.0209
      9 C         141.0486  144.0477  162.3077 C.ar    1  UNL1        0.1005
     10 N         140.3744  142.7084  162.2691 N.ar    1  UNL1       -0.2263
     11 C         139.6643  142.2618  161.0256 C.ar    1  UNL1        0.1507
     12 C         139.3094  139.7211  164.7559 C.ar    1  UNL1        0.0014
     13 C         139.0976  138.2441  164.6015 C.ar    1  UNL1        0.0001
     14 C         138.8500  137.6600  163.2423 C.ar    1  UNL1        0.0015
     15 C         138.8141  138.5527  162.0375 C.ar    1  UNL1        0.0176
     16 C         139.0259  140.0296  162.1918 C.ar    1  UNL1        0.0654
     17 C         139.2736  140.6138  163.5510 C.ar    1  UNL1        0.0176
     18 C         140.0524  141.4736  168.8334 C.ar    1  UNL1        0.0252
     19 C         140.5305  142.1953  167.6085 C.ar    1  UNL1        0.0061
     20 C         140.2828  141.6111  166.2492 C.ar    1  UNL1        0.0005
     21 C         139.5571  140.3052  166.1150 C.ar    1  UNL1        0.0001
     22 C         139.0790  139.5835  167.3400 C.ar    1  UNL1        0.0005
     23 C         139.3266  140.1677  168.6992 C.ar    1  UNL1        0.0061
     24 C         141.4045  141.5168  171.0516 C.3     1  UNL1        0.0742
     25 S         140.3001  142.0577  170.1926 S.3     1  UNL1       -0.1127
     26 C         137.5340  140.9219  157.2950 C.2     1  UNL1        0.2504
     27 O         137.9465  139.6523  156.6108 O.2     1  UNL1       -0.2700
     28 N         136.4115  141.7448  156.7357 N.am    1  UNL1       -0.3024
     29 H         136.1408  142.5780  157.1848 H       1  UNL1        0.1497
     30 C         135.7015  141.2981  155.4923 C.3     1  UNL1        0.0720
     31 C         134.4680  140.4509  155.5962 C.3     1  UNL1        0.0213
     32 C         136.2249  141.6985  154.1448 C.3     1  UNL1        0.0213
@<TRIPOS>BOND
     1    24    25    1
     2    25    18    1
     3    18    19   ar
     4    19    20   ar
     5    20    21   ar
     6    21    12    1
     7    12    13   ar
     8    13    14   ar
     9    14    15   ar
    10    15    16   ar
    11    16     1    1
    12     1     2   ar
    13     2     3   ar
    14     3    26    1
    15    26    27    2
    16    26    28   am
    17    28    30    1
    18    30    31    1
    19    30    32    1
    20     3     4   ar
    21     4     5    2
    22     4     6   ar
    23     6     7   ar
    24     7     8   ar
    25     8     9   ar
    26     9    10   ar
    27    10    11   ar
    28    16    17   ar
    29    21    22   ar
    30    22    23   ar
    31    23    18   ar
    32    17    12   ar
    33    11     1   ar
    34    11     6   ar
    35    28    29    1
@<TRIPOS>MOLECULE
*****
 32 35 0 0 0
SMALL
GASTEIGER

@<TRIPOS>ATOM
      1 N         141.3520  141.5289  161.5385 N.ar    1  UNL1       -0.2900
      2 C         141.5835  142.7342  160.6763 C.ar    1  UNL1        0.0891
      3 C         140.5314  143.1719  159.7008 C.ar    1  UNL1        0.1098
      4 C         139.2478  142.4041  159.5876 C.ar    1  UNL1        0.2043
      5 O         138.1957  142.8418  158.6121 O.2     1  UNL1       -0.2863
      6 C         139.0162  141.1987  160.4498 C.ar    1  UNL1        0.0736
      7 C         137.7326  140.4309  160.3366 C.ar    1  UNL1        0.0078
      8 C         137.5011  139.2256  161.1988 C.ar    1  UNL1        0.0209
      9 C         138.5533  138.7880  162.1742 C.ar    1  UNL1        0.1005
     10 N         139.8369  139.5557  162.2875 N.ar    1  UNL1       -0.2263
     11 C         140.0684  140.7611  161.4253 C.ar    1  UNL1        0.1507
     12 C         143.1799  140.7029  164.9629 C.ar    1  UNL1        0.0014
     13 C         144.5084  140.2160  164.4648 C.ar    1  UNL1        0.0001
     14 C         144.7847  140.1667  162.9914 C.ar    1  UNL1        0.0015
     15 C         143.7326  140.6043  162.0159 C.ar    1  UNL1        0.0176
     16 C         142.4042  141.0912  162.5139 C.ar    1  UNL1        0.0654
     17 C         142.1278  141.1405  163.9875 C.ar    1  UNL1        0.0176
     18 C         142.3509  140.8508  169.3834 C.ar    1  UNL1        0.0252
     19 C         142.5095  142.1244  168.6071 C.ar    1  UNL1        0.0061
     20 C         142.7859  142.0751  167.1335 C.ar    1  UNL1        0.0005
     21 C         142.9036  140.7522  166.4364 C.ar    1  UNL1        0.0001
     22 C         142.7449  139.4786  167.2127 C.ar    1  UNL1        0.0005
     23 C         142.4686  139.5278  168.6862 C.ar    1  UNL1        0.0061
     24 C         141.0069  141.8091  171.3898 C.3     1  UNL1        0.0742
     25 S         142.0745  140.9001  170.8569 S.3     1  UNL1       -0.1127
     26 C         140.7629  144.3773  158.8386 C.2     1  UNL1        0.2504
     27 O         141.5687  145.5296  159.3611 O.2     1  UNL1       -0.2700
     28 N         140.1887  144.4304  157.4539 N.am    1  UNL1       -0.3024
     29 H         139.6599  143.6742  157.1109 H       1  UNL1        0.1497
     30 C         140.4203  145.6358  156.5917 C.3     1  UNL1        0.0720
     31 C         139.5087  146.8221  156.7006 C.3     1  UNL1        0.0213
     32 C         141.5634  145.6550  155.6207 C.3     1  UNL1        0.0213
@<TRIPOS>BOND
     1    24    25    1
     2    25    18    1
     3    18    19   ar
     4    19    20   ar
     5    20    21   ar
     6    21    12    1
     7    12    13   ar
     8    13    14   ar
     9    14    15   ar
    10    15    16   ar
    11    16     1    1
    12     1     2   ar
    13     2     3   ar
    14     3    26    1
    15    26    27    2
    16    26    28   am
    17    28    30    1
    18    30    31    1
    19    30    32    1
    20     3     4   ar
    21     4     5    2
    22     4     6   ar
    23     6     7   ar
    24     7     8   ar
    25     8     9   ar
    26     9    10   ar
    27    10    11   ar
    28    16    17   ar
    29    21    22   ar
    30    22    23   ar
    31    23    18   ar
    32    17    12   ar
    33    11     1   ar
    34    11     6   ar
    35    28    29    1
@<TRIPOS>MOLECULE
*****
 32 35 0 0 0
SMALL
GASTEIGER

@<TRIPOS>ATOM
      1 N         140.1696  142.5483  164.1756 N.ar    1  UNL1       -0.2900
      2 C         140.5094  142.9951  165.5666 C.ar    1  UNL1        0.0891
      3 C         140.3052  142.0636  166.7244 C.ar    1  UNL1        0.1098
      4 C         139.7612  140.6854  166.4913 C.ar    1  UNL1        0.2043
      5 O         139.5571  139.7539  167.6492 O.2     1  UNL1       -0.2863
      6 C         139.4214  140.2385  165.1003 C.ar    1  UNL1        0.0736
      7 C         138.8774  138.8602  164.8672 C.ar    1  UNL1        0.0078
      8 C         138.5376  138.4134  163.4762 C.ar    1  UNL1        0.0209
      9 C         138.7417  139.3449  162.3184 C.ar    1  UNL1        0.1005
     10 N         139.2857  140.7232  162.5515 N.ar    1  UNL1       -0.2263
     11 C         139.6256  141.1700  163.9424 C.ar    1  UNL1        0.1507
     12 C         141.4487  143.9990  160.7101 C.ar    1  UNL1        0.0014
     13 C         140.7821  145.3427  160.7020 C.ar    1  UNL1        0.0001
     14 C         139.9114  145.7550  161.8517 C.ar    1  UNL1        0.0015
     15 C         139.7072  144.8235  163.0096 C.ar    1  UNL1        0.0176
     16 C         140.3738  143.4798  163.0177 C.ar    1  UNL1        0.0654
     17 C         141.2446  143.0675  161.8680 C.ar    1  UNL1        0.0176
     18 C         144.0610  142.7622  157.2610 C.ar    1  UNL1        0.0252
     19 C         144.4644  142.4252  158.6658 C.ar    1  UNL1        0.0061
     20 C         143.5936  142.8375  159.8156 C.ar    1  UNL1        0.0005
     21 C         142.3195  143.5867  159.5604 C.ar    1  UNL1        0.0001
     22 C         141.9160  143.9238  158.1555 C.ar    1  UNL1        0.0005
     23 C         142.7868  143.5116  157.0058 C.ar    1  UNL1        0.0061
     24 C         146.3199  141.8420  156.3662 C.3     1  UNL1        0.0742
     25 S         144.9317  142.3500  156.1113 S.3     1  UNL1       -0.1127
     26 C         140.6451  142.5105  168.1155 C.2     1  UNL1        0.2504
     27 O         140.0288  143.7589  168.6737 O.2     1  UNL1       -0.2700
     28 N         141.6012  141.7090  168.9481 N.am    1  UNL1       -0.3024
     29 H         142.0057  140.8896  168.5817 H       1  UNL1        0.1497
     30 C         141.9410  142.1558  170.3391 C.3     1  UNL1        0.0720
     31 C         143.0611  143.1284  170.5618 C.3     1  UNL1        0.0213
     32 C         141.1608  141.6302  171.5074 C.3     1  UNL1        0.0213
@<TRIPOS>BOND
     1    24    25    1
     2    25    18    1
     3    18    19   ar
     4    19    20   ar
     5    20    21   ar
     6    21    12    1
     7    12    13   ar
     8    13    14   ar
     9    14    15   ar
    10    15    16   ar
    11    16     1    1
    12     1     2   ar
    13     2     3   ar
    14     3    26    1
    15    26    27    2
    16    26    28   am
    17    28    30    1
    18    30    31    1
    19    30    32    1
    20     3     4   ar
    21     4     5    2
    22     4     6   ar
    23     6     7   ar
    24     7     8   ar
    25     8     9   ar
    26     9    10   ar
    27    10    11   ar
    28    16    17   ar
    29    21    22   ar
    30    22    23   ar
    31    23    18   ar
    32    17    12   ar
    33    11     1   ar
    34    11     6   ar
    35    28    29    1
@<TRIPOS>MOLECULE
*****
 32 35 0 0 0
SMALL
GASTEIGER

@<TRIPOS>ATOM
      1 N         141.4467  144.1088  157.3764 N.ar    1  UNL1       -0.2900
      2 C         141.4691  144.1653  158.8751 C.ar    1  UNL1        0.0891
      3 C         142.6204  143.5710  159.6309 C.ar    1  UNL1        0.1098
      4 C         143.7494  142.9203  158.8880 C.ar    1  UNL1        0.2043
      5 O         144.9007  142.3260  159.6439 O.2     1  UNL1       -0.2863
      6 C         143.7271  142.8638  157.3892 C.ar    1  UNL1        0.0736
      7 C         144.8561  142.2131  156.6463 C.ar    1  UNL1        0.0078
      8 C         144.8337  142.1567  155.1476 C.ar    1  UNL1        0.0209
      9 C         143.6824  142.7510  154.3917 C.ar    1  UNL1        0.1005
     10 N         142.5534  143.4017  155.1346 N.ar    1  UNL1       -0.2263
     11 C         142.5758  143.4581  156.6334 C.ar    1  UNL1        0.1507
     12 C         139.1474  146.7570  155.5189 C.ar    1  UNL1        0.0014
     13 C         137.9928  145.8916  155.1089 C.ar    1  UNL1        0.0001
     14 C         137.9895  144.4321  155.4547 C.ar    1  UNL1        0.0015
     15 C         139.1408  143.8378  156.2105 C.ar    1  UNL1        0.0176
     16 C         140.2954  144.7031  156.6205 C.ar    1  UNL1        0.0654
     17 C         140.2987  146.1628  156.2747 C.ar    1  UNL1        0.0176
     18 C         139.1572  151.1358  154.4814 C.ar    1  UNL1        0.0252
     19 C         139.8346  150.1492  153.5771 C.ar    1  UNL1        0.0061
     20 C         139.8313  148.6896  153.9229 C.ar    1  UNL1        0.0005
     21 C         139.1506  148.2166  155.1731 C.ar    1  UNL1        0.0001
     22 C         138.4732  149.2031  156.0774 C.ar    1  UNL1        0.0005
     23 C         138.4764  150.6627  155.7316 C.ar    1  UNL1        0.0061
     24 C         138.4288  153.5739  155.0058 C.3     1  UNL1        0.0742
     25 S         139.1604  152.5953  154.1356 S.3     1  UNL1       -0.1127
     26 C         142.6427  143.6274  161.1298 C.2     1  UNL1        0.2504
     27 O         141.3853  143.3776  161.9085 O.2     1  UNL1       -0.2700
     28 N         143.9224  143.9337  161.8498 N.am    1  UNL1       -0.3024
     29 H         144.7477  144.0977  161.3387 H       1  UNL1        0.1497
     30 C         143.9447  143.9902  163.3485 C.3     1  UNL1        0.0720
     31 C         143.5190  145.2412  164.0584 C.3     1  UNL1        0.0213
     32 C         144.3927  142.7956  164.1375 C.3     1  UNL1        0.0213
@<TRIPOS>BOND
     1    24    25    1
     2    25    18    1
     3    18    19   ar
     4    19    20   ar
     5    20    21   ar
     6    21    12    1
     7    12    13   ar
     8    13    14   ar
     9    14    15   ar
    10    15    16   ar
    11    16     1    1
    12     1     2   ar
    13     2     3   ar
    14     3    26    1
    15    26    27    2
    16    26    28   am
    17    28    30    1
    18    30    31    1
    19    30    32    1
    20     3     4   ar
    21     4     5    2
    22     4     6   ar
    23     6     7   ar
    24     7     8   ar
    25     8     9   ar
    26     9    10   ar
    27    10    11   ar
    28    16    17   ar
    29    21    22   ar
    30    22    23   ar
    31    23    18   ar
    32    17    12   ar
    33    11     1   ar
    34    11     6   ar
    35    28    29    1
@<TRIPOS>MOLECULE
*****
 32 35 0 0 0
SMALL
GASTEIGER

@<TRIPOS>ATOM
      1 N         141.8817  141.1231  163.7568 N.ar    1  UNL1       -0.2900
      2 C         142.0608  141.7568  165.1045 C.ar    1  UNL1        0.0891
      3 C         141.2732  141.2567  166.2790 C.ar    1  UNL1        0.1098
      4 C         140.3065  140.1230  166.1059 C.ar    1  UNL1        0.2043
      5 O         139.5189  139.6229  167.2805 O.2     1  UNL1       -0.2863
      6 C         140.1273  139.4892  164.7582 C.ar    1  UNL1        0.0736
      7 C         139.1606  138.3555  164.5850 C.ar    1  UNL1        0.0078
      8 C         138.9814  137.7218  163.2373 C.ar    1  UNL1        0.0209
      9 C         139.7690  138.2219  162.0628 C.ar    1  UNL1        0.1005
     10 N         140.7358  139.3557  162.2359 N.ar    1  UNL1       -0.2263
     11 C         140.9149  139.9893  163.5836 C.ar    1  UNL1        0.1507
     12 C         142.7917  142.9729  160.3656 C.ar    1  UNL1        0.0014
     13 C         144.2445  142.6233  160.2331 C.ar    1  UNL1        0.0001
     14 C         144.9095  141.7737  161.2751 C.ar    1  UNL1        0.0015
     15 C         144.1219  141.2737  162.4496 C.ar    1  UNL1        0.0176
     16 C         142.6693  141.6232  162.5822 C.ar    1  UNL1        0.0654
     17 C         142.0042  142.4729  161.5402 C.ar    1  UNL1        0.0176
     18 C         140.7966  145.5218  157.2395 C.ar    1  UNL1        0.0252
     19 C         142.1299  144.8952  156.9573 C.ar    1  UNL1        0.0061
     20 C         142.7950  144.0456  157.9994 C.ar    1  UNL1        0.0005
     21 C         142.1267  143.8226  159.3236 C.ar    1  UNL1        0.0001
     22 C         140.7934  144.4492  159.6058 C.ar    1  UNL1        0.0005
     23 C         140.1284  145.2988  158.5638 C.ar    1  UNL1        0.0061
     24 C         139.1181  147.4002  156.6034 C.3     1  UNL1        0.0742
     25 S         140.1316  146.3715  156.1975 S.3     1  UNL1       -0.1127
     26 C         141.4524  141.8904  167.6268 C.2     1  UNL1        0.2504
     27 O         142.8157  142.3270  168.0750 O.2     1  UNL1       -0.2700
     28 N         140.2683  142.0876  168.5263 N.am    1  UNL1       -0.3024
     29 H         139.3736  141.8010  168.2321 H       1  UNL1        0.1497
     30 C         140.4476  142.7212  169.8739 C.3     1  UNL1        0.0720
     31 C         140.3316  144.2092  170.0245 C.3     1  UNL1        0.0213
     32 C         140.7428  141.8671  171.0711 C.3     1  UNL1        0.0213
@<TRIPOS>BOND
     1    24    25    1
     2    25    18    1
     3    18    19   ar
     4    19    20   ar
     5    20    21   ar
     6    21    12    1
     7    12    13   ar
     8    13    14   ar
     9    14    15   ar
    10    15    16   ar
    11    16     1    1
    12     1     2   ar
    13     2     3   ar
    14     3    26    1
    15    26    27    2
    16    26    28   am
    17    28    30    1
    18    30    31    1
    19    30    32    1
    20     3     4   ar
    21     4     5    2
    22     4     6   ar
    23     6     7   ar
    24     7     8   ar
    25     8     9   ar
    26     9    10   ar
    27    10    11   ar
    28    16    17   ar
    29    21    22   ar
    30    22    23   ar
    31    23    18   ar
    32    17    12   ar
    33    11     1   ar
    34    11     6   ar
    35    28    29    1
