@<TRIPOS>MOLECULE
*****
 25 28 0 0 0
SMALL
GASTEIGER

@<TRIPOS>ATOM
      1 N         141.5628  137.7240  162.6731 N.3     1  UNL1       -0.2665
      2 C         140.3883  138.0159  161.7869 C.3     1  UNL1        0.0899
      3 C         140.6090  138.4968  160.3833 C.3     1  UNL1        0.0900
      4 N         142.0042  138.6857  159.8659 N.3     1  UNL1       -0.2624
      5 C         143.1787  138.3939  160.7521 C.3     1  UNL1        0.0900
      6 C         142.9580  137.9130  162.1558 C.3     1  UNL1        0.0899
      7 C         141.3421  137.2432  164.0767 C.3     1  UNL1        0.0992
      8 C         138.7505  139.6172  166.8870 C.ar    1  UNL1       -0.0000
      9 C         140.1935  139.9846  166.7064 C.ar    1  UNL1       -0.0003
     10 C         141.0574  139.1933  165.7696 C.ar    1  UNL1       -0.0029
     11 C         140.4782  138.0345  165.0135 C.ar    1  UNL1       -0.0061
     12 C         139.0352  137.6671  165.1941 C.ar    1  UNL1       -0.0029
     13 C         138.1713  138.4584  166.1309 C.ar    1  UNL1       -0.0003
     14 C         142.2249  139.1666  158.4623 C.3     1  UNL1        0.1615
     15 C         142.8366  138.2514  157.4434 C.ar    1  UNL1        0.2529
     16 N         142.3552  136.8745  157.0933 N.ar    1  UNL1       -0.1896
     17 C         143.2581  136.3245  156.0292 C.ar    1  UNL1        0.2033
     18 N         144.2975  137.3614  155.7217 N.ar    1  UNL1       -0.0560
     19 O         144.0370  138.5523  156.5957 O.2     1  UNL1       -0.3356
     20 C         143.1421  134.9745  155.3857 C.ar    1  UNL1        0.0391
     21 C         143.8215  133.7884  156.0031 C.ar    1  UNL1        0.0032
     22 C         143.7055  132.4385  155.3597 C.ar    1  UNL1        0.0001
     23 C         142.9099  132.2746  154.0985 C.ar    1  UNL1        0.0000
     24 C         142.2304  133.4608  153.4811 C.ar    1  UNL1        0.0001
     25 C         142.3465  134.8108  154.1246 C.ar    1  UNL1        0.0032
@<TRIPOS>BOND
     1     8     9   ar
     2     9    10   ar
     3    10    11   ar
     4    11     7    1
     5     7     1    1
     6     1     2    1
     7     2     3    1
     8     3     4    1
     9     4    14    1
    10    14    15    1
    11    15    16   ar
    12    16    17   ar
    13    17    20    1
    14    20    21   ar
    15    21    22   ar
    16    22    23   ar
    17    23    24   ar
    18    24    25   ar
    19    17    18   ar
    20    18    19   ar
    21     4     5    1
    22     5     6    1
    23    11    12   ar
    24    12    13   ar
    25    13     8   ar
    26     6     1    1
    27    19    15   ar
    28    25    20   ar
@<TRIPOS>MOLECULE
*****
 25 28 0 0 0
SMALL
GASTEIGER

@<TRIPOS>ATOM
      1 N         140.4583  142.3721  165.2262 N.3     1  UNL1       -0.2665
      2 C         139.0930  142.6275  164.6596 C.3     1  UNL1        0.0899
      3 C         138.8966  143.7018  163.6315 C.3     1  UNL1        0.0900
      4 N         140.0655  144.5208  163.1698 N.3     1  UNL1       -0.2624
      5 C         141.4307  144.2654  163.7363 C.3     1  UNL1        0.0900
      6 C         141.6271  143.1910  164.7645 C.3     1  UNL1        0.0899
      7 C         140.6546  141.2977  166.2543 C.3     1  UNL1        0.0992
      8 C         139.6499  142.0997  170.5668 C.ar    1  UNL1       -0.0000
      9 C         140.2725  143.1768  169.7289 C.ar    1  UNL1       -0.0003
     10 C         140.6074  142.9095  168.2914 C.ar    1  UNL1       -0.0029
     11 C         140.3197  141.5650  167.6918 C.ar    1  UNL1       -0.0061
     12 C         139.6971  140.4879  168.5297 C.ar    1  UNL1       -0.0029
     13 C         139.3622  140.7552  169.9672 C.ar    1  UNL1       -0.0003
     14 C         139.8690  145.5952  162.1416 C.3     1  UNL1        0.1615
     15 C         140.5429  145.4872  160.8058 C.ar    1  UNL1        0.2529
     16 N         139.9589  145.9012  159.4877 N.ar    1  UNL1       -0.1896
     17 C         140.9741  145.6161  158.4209 C.ar    1  UNL1        0.2033
     18 N         142.1855  145.0259  159.0797 N.ar    1  UNL1       -0.0560
     19 O         141.9190  144.9462  160.5537 O.2     1  UNL1       -0.3356
     20 C         140.8071  145.8757  156.9530 C.ar    1  UNL1        0.0391
     21 C         141.8095  145.3348  155.9769 C.ar    1  UNL1        0.0032
     22 C         141.6427  145.5943  154.5091 C.ar    1  UNL1        0.0001
     23 C         140.4733  146.3948  154.0171 C.ar    1  UNL1        0.0000
     24 C         139.4709  146.9357  154.9931 C.ar    1  UNL1        0.0001
     25 C         139.6378  146.6761  156.4611 C.ar    1  UNL1        0.0032
@<TRIPOS>BOND
     1     8     9   ar
     2     9    10   ar
     3    10    11   ar
     4    11     7    1
     5     7     1    1
     6     1     2    1
     7     2     3    1
     8     3     4    1
     9     4    14    1
    10    14    15    1
    11    15    16   ar
    12    16    17   ar
    13    17    20    1
    14    20    21   ar
    15    21    22   ar
    16    22    23   ar
    17    23    24   ar
    18    24    25   ar
    19    17    18   ar
    20    18    19   ar
    21     4     5    1
    22     5     6    1
    23    11    12   ar
    24    12    13   ar
    25    13     8   ar
    26     6     1    1
    27    19    15   ar
    28    25    20   ar
@<TRIPOS>MOLECULE
*****
 25 28 0 0 0
SMALL
GASTEIGER

@<TRIPOS>ATOM
      1 N         139.9249  137.9371  161.8132 N.3     1  UNL1       -0.2665
      2 C         139.2616  138.4069  160.5525 C.3     1  UNL1        0.0899
      3 C         140.0884  138.7126  159.3390 C.3     1  UNL1        0.0900
      4 N         141.5787  138.5485  159.3860 N.3     1  UNL1       -0.2624
      5 C         142.2421  138.0786  160.6466 C.3     1  UNL1        0.0900
      6 C         141.4152  137.7729  161.8603 C.3     1  UNL1        0.0899
      7 C         139.0981  137.6314  163.0268 C.3     1  UNL1        0.0992
      8 C         139.1550  140.4287  166.5512 C.ar    1  UNL1       -0.0000
      9 C         138.6010  139.0430  166.7024 C.ar    1  UNL1       -0.0003
     10 C         138.5820  138.1106  165.5276 C.ar    1  UNL1       -0.0029
     11 C         139.1170  138.5638  164.2016 C.ar    1  UNL1       -0.0061
     12 C         139.6710  139.9495  164.0504 C.ar    1  UNL1       -0.0029
     13 C         139.6900  140.8820  165.2253 C.ar    1  UNL1       -0.0003
     14 C         142.4056  138.8542  158.1723 C.3     1  UNL1        0.1615
     15 C         142.9241  137.7363  157.3171 C.ar    1  UNL1        0.2529
     16 N         142.4027  136.3301  157.2926 N.ar    1  UNL1       -0.1896
     17 C         143.2114  135.5531  156.2965 C.ar    1  UNL1        0.2033
     18 N         144.2327  136.4792  155.7053 N.ar    1  UNL1       -0.0560
     19 O         144.0551  137.8285  156.3361 O.2     1  UNL1       -0.3356
     20 C         143.0306  134.1044  155.9521 C.ar    1  UNL1        0.0391
     21 C         141.6947  133.6051  155.4874 C.ar    1  UNL1        0.0032
     22 C         141.5138  132.1565  155.1429 C.ar    1  UNL1        0.0001
     23 C         142.6690  131.2070  155.2631 C.ar    1  UNL1        0.0000
     24 C         144.0049  131.7064  155.7278 C.ar    1  UNL1        0.0001
     25 C         144.1857  133.1551  156.0723 C.ar    1  UNL1        0.0032
@<TRIPOS>BOND
     1     8     9   ar
     2     9    10   ar
     3    10    11   ar
     4    11     7    1
     5     7     1    1
     6     1     2    1
     7     2     3    1
     8     3     4    1
     9     4    14    1
    10    14    15    1
    11    15    16   ar
    12    16    17   ar
    13    17    20    1
    14    20    21   ar
    15    21    22   ar
    16    22    23   ar
    17    23    24   ar
    18    24    25   ar
    19    17    18   ar
    20    18    19   ar
    21     4     5    1
    22     5     6    1
    23    11    12   ar
    24    12    13   ar
    25    13     8   ar
    26     6     1    1
    27    19    15   ar
    28    25    20   ar
@<TRIPOS>MOLECULE
*****
 25 28 0 0 0
SMALL
GASTEIGER

@<TRIPOS>ATOM
      1 N         144.5048  140.6183  162.0708 N.3     1  UNL1       -0.2665
      2 C         144.1343  139.2300  161.6401 C.3     1  UNL1        0.0899
      3 C         143.5994  138.9908  160.2594 C.3     1  UNL1        0.0900
      4 N         143.4350  140.1397  159.3092 N.3     1  UNL1       -0.2624
      5 C         143.8054  141.5280  159.7398 C.3     1  UNL1        0.0900
      6 C         144.3404  141.7673  161.1206 C.3     1  UNL1        0.0899
      7 C         145.0397  140.8576  163.4516 C.3     1  UNL1        0.0992
      8 C         142.7080  139.4665  167.0402 C.ar    1  UNL1       -0.0000
      9 C         142.6326  140.9005  166.6066 C.ar    1  UNL1       -0.0003
     10 C         143.4098  141.3642  165.4104 C.ar    1  UNL1       -0.0029
     11 C         144.2624  140.3939  164.6478 C.ar    1  UNL1       -0.0061
     12 C         144.3378  138.9600  165.0814 C.ar    1  UNL1       -0.0029
     13 C         143.5606  138.4963  166.2776 C.ar    1  UNL1       -0.0003
     14 C         142.9001  139.9004  157.9283 C.3     1  UNL1        0.1615
     15 C         143.2390  138.6325  157.2021 C.ar    1  UNL1        0.2529
     16 N         142.5456  137.3121  157.3627 N.ar    1  UNL1       -0.1896
     17 C         143.2089  136.3259  156.4476 C.ar    1  UNL1        0.2033
     18 N         144.3122  137.0368  155.7213 N.ar    1  UNL1       -0.0560
     19 O         144.3308  138.4623  156.1876 O.2     1  UNL1       -0.3356
     20 C         142.8346  134.8823  156.2869 C.ar    1  UNL1        0.0391
     21 C         143.5457  133.8298  157.0847 C.ar    1  UNL1        0.0032
     22 C         143.1715  132.3862  156.9241 C.ar    1  UNL1        0.0001
     23 C         142.0860  131.9950  155.9655 C.ar    1  UNL1        0.0000
     24 C         141.3748  133.0474  155.1677 C.ar    1  UNL1        0.0001
     25 C         141.7491  134.4911  155.3284 C.ar    1  UNL1        0.0032
@<TRIPOS>BOND
     1     8     9   ar
     2     9    10   ar
     3    10    11   ar
     4    11     7    1
     5     7     1    1
     6     1     2    1
     7     2     3    1
     8     3     4    1
     9     4    14    1
    10    14    15    1
    11    15    16   ar
    12    16    17   ar
    13    17    20    1
    14    20    21   ar
    15    21    22   ar
    16    22    23   ar
    17    23    24   ar
    18    24    25   ar
    19    17    18   ar
    20    18    19   ar
    21     4     5    1
    22     5     6    1
    23    11    12   ar
    24    12    13   ar
    25    13     8   ar
    26     6     1    1
    27    19    15   ar
    28    25    20   ar
@<TRIPOS>MOLECULE
*****
 25 28 0 0 0
SMALL
GASTEIGER

@<TRIPOS>ATOM
      1 N         142.7785  138.8613  163.3314 N.3     1  UNL1       -0.2665
      2 C         141.4772  139.1390  162.6388 C.3     1  UNL1        0.0899
      3 C         141.4560  139.4136  161.1643 C.3     1  UNL1        0.0900
      4 N         142.7361  139.4105  160.3824 N.3     1  UNL1       -0.2624
      5 C         144.0373  139.1329  161.0749 C.3     1  UNL1        0.0900
      6 C         144.0586  138.8583  162.5495 C.3     1  UNL1        0.0899
      7 C         142.7997  138.5867  164.8059 C.3     1  UNL1        0.0992
      8 C         142.9192  142.0052  167.7298 C.ar    1  UNL1       -0.0000
      9 C         142.5993  140.6200  168.2081 C.ar    1  UNL1       -0.0003
     10 C         142.5594  139.4805  167.2335 C.ar    1  UNL1       -0.0029
     11 C         142.8395  139.7262  165.7805 C.ar    1  UNL1       -0.0061
     12 C         143.1595  141.1114  165.3022 C.ar    1  UNL1       -0.0029
     13 C         143.1994  142.2509  166.2768 C.ar    1  UNL1       -0.0003
     14 C         142.7149  139.6852  158.9078 C.3     1  UNL1        0.1615
     15 C         142.9946  138.5785  157.9347 C.ar    1  UNL1        0.2529
     16 N         142.4594  137.1794  158.0130 N.ar    1  UNL1       -0.1896
     17 C         142.9926  136.4128  156.8392 C.ar    1  UNL1        0.2033
     18 N         143.8573  137.3381  156.0353 N.ar    1  UNL1       -0.0560
     19 O         143.8585  138.6766  156.7124 O.2     1  UNL1       -0.3356
     20 C         142.7105  134.9736  156.5243 C.ar    1  UNL1        0.0391
     21 C         143.4515  133.8884  157.2478 C.ar    1  UNL1        0.0032
     22 C         143.1696  132.4493  156.9331 C.ar    1  UNL1        0.0001
     23 C         142.1465  132.0951  155.8947 C.ar    1  UNL1        0.0000
     24 C         141.4055  133.1802  155.1713 C.ar    1  UNL1        0.0001
     25 C         141.6875  134.6195  155.4861 C.ar    1  UNL1        0.0032
@<TRIPOS>BOND
     1     8     9   ar
     2     9    10   ar
     3    10    11   ar
     4    11     7    1
     5     7     1    1
     6     1     2    1
     7     2     3    1
     8     3     4    1
     9     4    14    1
    10    14    15    1
    11    15    16   ar
    12    16    17   ar
    13    17    20    1
    14    20    21   ar
    15    21    22   ar
    16    22    23   ar
    17    23    24   ar
    18    24    25   ar
    19    17    18   ar
    20    18    19   ar
    21     4     5    1
    22     5     6    1
    23    11    12   ar
    24    12    13   ar
    25    13     8   ar
    26     6     1    1
    27    19    15   ar
    28    25    20   ar
@<TRIPOS>MOLECULE
*****
 25 28 0 0 0
SMALL
GASTEIGER

@<TRIPOS>ATOM
      1 N         139.5257  142.2263  164.9104 N.3     1  UNL1       -0.2665
      2 C         139.3467  141.9854  163.4407 C.3     1  UNL1        0.0899
      3 C         139.4032  143.1358  162.4798 C.3     1  UNL1        0.0900
      4 N         139.6387  144.5271  162.9885 N.3     1  UNL1       -0.2624
      5 C         139.8177  144.7680  164.4581 C.3     1  UNL1        0.0900
      6 C         139.7612  143.6176  165.4191 C.3     1  UNL1        0.0899
      7 C         139.4692  141.0760  165.8714 C.3     1  UNL1        0.0992
      8 C         141.0544  137.0450  164.6512 C.ar    1  UNL1       -0.0000
      9 C         142.0056  138.1458  165.0166 C.ar    1  UNL1       -0.0003
     10 C         141.4772  139.4894  165.4233 C.ar    1  UNL1       -0.0029
     11 C         139.9976  139.7323  165.4646 C.ar    1  UNL1       -0.0061
     12 C         139.0464  138.6316  165.0993 C.ar    1  UNL1       -0.0029
     13 C         139.5748  137.2879  164.6926 C.ar    1  UNL1       -0.0003
     14 C         139.6952  145.6775  162.0275 C.3     1  UNL1        0.1615
     15 C         140.4187  145.5293  160.7219 C.ar    1  UNL1        0.2529
     16 N         139.8878  145.9095  159.3716 N.ar    1  UNL1       -0.1896
     17 C         140.9411  145.5900  158.3526 C.ar    1  UNL1        0.2033
     18 N         142.1232  145.0123  159.0731 N.ar    1  UNL1       -0.0560
     19 O         141.8003  144.9748  160.5375 O.2     1  UNL1       -0.3356
     20 C         140.8318  145.8097  156.8727 C.ar    1  UNL1        0.0391
     21 C         139.6867  146.6017  156.3147 C.ar    1  UNL1        0.0032
     22 C         139.5772  146.8214  154.8350 C.ar    1  UNL1        0.0001
     23 C         140.6130  146.2490  153.9131 C.ar    1  UNL1        0.0000
     24 C         141.7581  145.4570  154.4712 C.ar    1  UNL1        0.0001
     25 C         141.8674  145.2373  155.9510 C.ar    1  UNL1        0.0032
@<TRIPOS>BOND
     1     8     9   ar
     2     9    10   ar
     3    10    11   ar
     4    11     7    1
     5     7     1    1
     6     1     2    1
     7     2     3    1
     8     3     4    1
     9     4    14    1
    10    14    15    1
    11    15    16   ar
    12    16    17   ar
    13    17    20    1
    14    20    21   ar
    15    21    22   ar
    16    22    23   ar
    17    23    24   ar
    18    24    25   ar
    19    17    18   ar
    20    18    19   ar
    21     4     5    1
    22     5     6    1
    23    11    12   ar
    24    12    13   ar
    25    13     8   ar
    26     6     1    1
    27    19    15   ar
    28    25    20   ar
@<TRIPOS>MOLECULE
*****
 25 28 0 0 0
SMALL
GASTEIGER

@<TRIPOS>ATOM
      1 N         140.5539  142.7881  165.3558 N.3     1  UNL1       -0.2665
      2 C         141.5052  142.7943  164.1960 C.3     1  UNL1        0.0899
      3 C         141.3221  143.7808  163.0810 C.3     1  UNL1        0.0900
      4 N         140.1876  144.7611  163.1257 N.3     1  UNL1       -0.2624
      5 C         139.2363  144.7549  164.2854 C.3     1  UNL1        0.0900
      6 C         139.4194  143.7684  165.4005 C.3     1  UNL1        0.0899
      7 C         140.7371  141.8016  166.4708 C.3     1  UNL1        0.0992
      8 C         142.7010  143.0853  170.3108 C.ar    1  UNL1       -0.0000
      9 C         143.5045  142.3862  169.2545 C.ar    1  UNL1       -0.0003
     10 C         142.8499  141.9583  167.9746 C.ar    1  UNL1       -0.0029
     11 C         141.3917  142.2295  167.7508 C.ar    1  UNL1       -0.0061
     12 C         140.5882  142.9286  168.8070 C.ar    1  UNL1       -0.0029
     13 C         141.2428  143.3564  170.0870 C.ar    1  UNL1       -0.0003
     14 C         140.0045  145.7476  162.0106 C.3     1  UNL1        0.1615
     15 C         140.6349  145.4937  160.6735 C.ar    1  UNL1        0.2529
     16 N         140.0061  145.7586  159.3377 N.ar    1  UNL1       -0.1896
     17 C         140.9874  145.3588  158.2760 C.ar    1  UNL1        0.2033
     18 N         142.2228  144.8469  158.9556 N.ar    1  UNL1       -0.0560
     19 O         142.0049  144.9302  160.4374 O.2     1  UNL1       -0.3356
     20 C         140.7714  145.4543  156.7947 C.ar    1  UNL1        0.0391
     21 C         139.9950  146.6031  156.2225 C.ar    1  UNL1        0.0032
     22 C         139.7790  146.6987  154.7413 C.ar    1  UNL1        0.0001
     23 C         140.3393  145.6452  153.8321 C.ar    1  UNL1        0.0000
     24 C         141.1157  144.4964  154.4043 C.ar    1  UNL1        0.0001
     25 C         141.3317  144.4009  155.8856 C.ar    1  UNL1        0.0032
@<TRIPOS>BOND
     1     8     9   ar
     2     9    10   ar
     3    10    11   ar
     4    11     7    1
     5     7     1    1
     6     1     2    1
     7     2     3    1
     8     3     4    1
     9     4    14    1
    10    14    15    1
    11    15    16   ar
    12    16    17   ar
    13    17    20    1
    14    20    21   ar
    15    21    22   ar
    16    22    23   ar
    17    23    24   ar
    18    24    25   ar
    19    17    18   ar
    20    18    19   ar
    21     4     5    1
    22     5     6    1
    23    11    12   ar
    24    12    13   ar
    25    13     8   ar
    26     6     1    1
    27    19    15   ar
    28    25    20   ar
@<TRIPOS>MOLECULE
*****
 25 28 0 0 0
SMALL
GASTEIGER

@<TRIPOS>ATOM
      1 N         139.4723  139.8440  161.1288 N.3     1  UNL1       -0.2665
      2 C         139.0203  139.1702  159.8671 C.3     1  UNL1        0.0899
      3 C         140.0235  138.7915  158.8183 C.3     1  UNL1        0.0900
      4 N         141.4787  139.0865  159.0311 N.3     1  UNL1       -0.2624
      5 C         141.9307  139.7603  160.2927 C.3     1  UNL1        0.0900
      6 C         140.9275  140.1391  161.3416 C.3     1  UNL1        0.0899
      7 C         138.4691  140.2228  162.1777 C.3     1  UNL1        0.0992
      8 C         138.5371  138.1932  166.1934 C.ar    1  UNL1       -0.0000
      9 C         138.1489  139.6384  166.0899 C.ar    1  UNL1       -0.0003
     10 C         138.1262  140.3149  164.7513 C.ar    1  UNL1       -0.0029
     11 C         138.4917  139.5463  163.5162 C.ar    1  UNL1       -0.0061
     12 C         138.8799  138.1011  163.6197 C.ar    1  UNL1       -0.0029
     13 C         138.9026  137.4246  164.9583 C.ar    1  UNL1       -0.0003
     14 C         142.4819  138.7078  157.9821 C.3     1  UNL1        0.1615
     15 C         142.4171  137.3557  157.3359 C.ar    1  UNL1        0.2529
     16 N         143.3702  136.2210  157.5680 N.ar    1  UNL1       -0.1896
     17 C         142.9300  135.0650  156.7195 C.ar    1  UNL1        0.2033
     18 N         141.7048  135.4852  155.9630 N.ar    1  UNL1       -0.0560
     19 O         141.3878  136.9010  156.3440 O.2     1  UNL1       -0.3356
     20 C         143.5978  133.7240  156.6413 C.ar    1  UNL1        0.0391
     21 C         143.4603  132.8888  155.4030 C.ar    1  UNL1        0.0032
     22 C         144.1280  131.5480  155.3247 C.ar    1  UNL1        0.0001
     23 C         144.9333  131.0422  156.4849 C.ar    1  UNL1        0.0000
     24 C         145.0708  131.8775  157.7232 C.ar    1  UNL1        0.0001
     25 C         144.4030  133.2184  157.8014 C.ar    1  UNL1        0.0032
@<TRIPOS>BOND
     1     8     9   ar
     2     9    10   ar
     3    10    11   ar
     4    11     7    1
     5     7     1    1
     6     1     2    1
     7     2     3    1
     8     3     4    1
     9     4    14    1
    10    14    15    1
    11    15    16   ar
    12    16    17   ar
    13    17    20    1
    14    20    21   ar
    15    21    22   ar
    16    22    23   ar
    17    23    24   ar
    18    24    25   ar
    19    17    18   ar
    20    18    19   ar
    21     4     5    1
    22     5     6    1
    23    11    12   ar
    24    12    13   ar
    25    13     8   ar
    26     6     1    1
    27    19    15   ar
    28    25    20   ar
@<TRIPOS>MOLECULE
*****
 25 28 0 0 0
SMALL
GASTEIGER

@<TRIPOS>ATOM
      1 N         141.0689  137.6114  162.2576 N.3     1  UNL1       -0.2665
      2 C         142.3877  137.7718  161.5610 C.3     1  UNL1        0.0899
      3 C         142.4351  138.2954  160.1562 C.3     1  UNL1        0.0900
      4 N         141.1638  138.6586  159.4479 N.3     1  UNL1       -0.2624
      5 C         139.8450  138.4982  160.1443 C.3     1  UNL1        0.0900
      6 C         139.7976  137.9746  161.5492 C.3     1  UNL1        0.0899
      7 C         141.0215  137.0878  163.6624 C.3     1  UNL1        0.0992
      8 C         138.9529  139.4595  166.8789 C.ar    1  UNL1       -0.0000
      9 C         138.2175  138.3653  166.1635 C.ar    1  UNL1       -0.0003
     10 C         138.9070  137.5747  165.0913 C.ar    1  UNL1       -0.0029
     11 C         140.3320  137.8784  164.7346 C.ar    1  UNL1       -0.0061
     12 C         141.0673  138.9726  165.4500 C.ar    1  UNL1       -0.0029
     13 C         140.3778  139.7631  166.5222 C.ar    1  UNL1       -0.0003
     14 C         141.2113  139.1822  158.0430 C.3     1  UNL1        0.1615
     15 C         142.5114  139.2069  157.2953 C.ar    1  UNL1        0.2529
     16 N         143.2961  140.4324  156.9317 N.ar    1  UNL1       -0.1896
     17 C         144.5248  139.9934  156.1917 C.ar    1  UNL1        0.2033
     18 N         144.4994  138.4965  156.0979 N.ar    1  UNL1       -0.0560
     19 O         143.2551  138.0105  156.7800 O.2     1  UNL1       -0.3356
     20 C         145.5916  140.8933  155.6419 C.ar    1  UNL1        0.0391
     21 C         146.3051  141.8517  156.5487 C.ar    1  UNL1        0.0032
     22 C         147.3718  142.7516  155.9991 C.ar    1  UNL1        0.0001
     23 C         147.7252  142.6930  154.5423 C.ar    1  UNL1        0.0000
     24 C         147.0117  141.7346  153.6355 C.ar    1  UNL1        0.0001
     25 C         145.9449  140.8347  154.1853 C.ar    1  UNL1        0.0032
@<TRIPOS>BOND
     1     8     9   ar
     2     9    10   ar
     3    10    11   ar
     4    11     7    1
     5     7     1    1
     6     1     2    1
     7     2     3    1
     8     3     4    1
     9     4    14    1
    10    14    15    1
    11    15    16   ar
    12    16    17   ar
    13    17    20    1
    14    20    21   ar
    15    21    22   ar
    16    22    23   ar
    17    23    24   ar
    18    24    25   ar
    19    17    18   ar
    20    18    19   ar
    21     4     5    1
    22     5     6    1
    23    11    12   ar
    24    12    13   ar
    25    13     8   ar
    26     6     1    1
    27    19    15   ar
    28    25    20   ar
