@<TRIPOS>MOLECULE
*****
 44 49 0 0 0
SMALL
GASTEIGER

@<TRIPOS>ATOM
      1 C         138.5588  141.8762  159.9750 C.3     1  UNL1        0.0546
      2 C         138.0795  140.5131  159.5725 C.3     1  UNL1        0.0180
      3 C         139.1801  139.8427  158.8049 C.3     1  UNL1        0.0311
      4 C         139.5642  138.5859  158.0817 C.3     1  UNL1        0.0973
      5 N         140.9611  138.7579  157.5630 N.am    1  UNL1       -0.2455
      6 C         141.7416  137.7447  156.7793 C.2     1  UNL1        0.4049
      7 O         143.1361  138.0598  156.3252 O.2     1  UNL1       -0.2262
      8 C         141.4404  140.1211  157.9656 C.3     1  UNL1        0.1053
      9 C         140.3398  140.7915  158.7331 C.3     1  UNL1        0.0903
     10 C         139.9557  142.0483  159.4563 C.3     1  UNL1        0.0261
     11 C         141.4993  141.7403  158.6613 C.2     1  UNL1        0.2267
     12 O         141.6147  142.6980  157.5127 O.2     1  UNL1       -0.2748
     13 N         142.5435  141.7314  159.7382 N.am    1  UNL1       -0.2750
     14 C         143.7030  142.6802  159.6664 C.3     1  UNL1        0.1000
     15 C         144.7471  142.6713  160.7433 C.3     1  UNL1        0.0670
     16 C         144.6317  141.7135  161.8920 C.ar    1  UNL1        0.0583
     17 N         145.6759  141.7046  162.9689 N.ar    1  UNL1       -0.2484
     18 C         145.5605  140.7469  164.1176 C.ar    1  UNL1        0.1023
     19 C         144.4009  139.7981  164.1893 C.ar    1  UNL1        0.0902
     20 C         143.3568  139.8070  163.1124 C.ar    1  UNL1        0.0040
     21 C         143.4722  140.7647  161.9638 C.ar    1  UNL1        0.0113
     22 C         142.4281  140.7737  160.8869 C.3     1  UNL1        0.1213
     23 C         144.2854  138.8403  165.3380 C.3     1  UNL1        0.4200
     24 F         144.1700  137.8826  166.4866 F       1  UNL1       -0.1658
     25 F         145.7736  138.6525  165.3309 F       1  UNL1       -0.1658
     26 F         142.7973  139.0282  165.3450 F       1  UNL1       -0.1658
     27 N         137.7783  142.8895  160.7588 N.3     1  UNL1       -0.2975
     28 H         137.8488  143.7718  160.2519 H       1  UNL1        0.1232
     29 C         138.8910  144.4335  162.5273 C.3     1  UNL1        0.1591
     30 C         139.2567  144.7228  163.9530 C.3     1  UNL1        0.1729
     31 O         138.8755  143.7573  165.0358 O.3     1  UNL1       -0.3511
     32 C         138.1285  142.5025  164.6929 C.3     1  UNL1        0.1437
     33 C         137.7628  142.2132  163.2673 C.3     1  UNL1        0.0503
     34 C         138.1441  143.1788  162.1844 C.3     1  UNL1        0.0865
     35 C         140.6631  145.3851  160.8828 C.3     1  UNL1        0.1742
     36 O         139.2722  145.3990  161.4445 O.3     1  UNL1       -0.3496
     37 O         141.1276  136.4164  156.4496 O.3     1  UNL1       -0.4345
     38 C         141.8512  135.4582  155.5506 C.3     1  UNL1        0.2102
     39 C         142.4922  134.2295  156.1246 C.3     1  UNL1        0.0489
     40 C         143.6671  134.3584  157.0482 C.3     1  UNL1        0.0359
     41 C         144.3080  133.1297  157.6222 C.3     1  UNL1        0.1423
     42 O         143.7741  131.7722  157.2727 O.3     1  UNL1       -0.3538
     43 C         142.5993  131.6434  156.3491 C.3     1  UNL1        0.1423
     44 C         141.9583  132.8720  155.7751 C.3     1  UNL1        0.0359
@<TRIPOS>BOND
     1    35    36    1
     2    36    29    1
     3    29    30    1
     4    30    31    1
     5    31    32    1
     6    32    33    1
     7    33    34    1
     8    34    27    1
     9     1    27    1
    10     1     2    1
    11     3     2    1
    12     3     4    1
    13     4     5    1
    14     5     6   am
    15     6     7    2
    16     6    37    1
    17    37    38    1
    18    38    39    1
    19    39    40    1
    20    40    41    1
    21    41    42    1
    22    42    43    1
    23    43    44    1
    24     5     8    1
    25     8     9    1
    26     9    11    1
    27    11    12    2
    28    11    13   am
    29    13    14    1
    30    14    15    1
    31    15    16    1
    32    16    17   ar
    33    17    18   ar
    34    18    19   ar
    35    19    23    1
    36    23    24    1
    37    23    25    1
    38    23    26    1
    39    19    20   ar
    40    20    21   ar
    41    21    22    1
    42     9    10    1
    43    34    29    1
    44    10     1    1
    45     9     3    1
    46    22    13    1
    47    44    39    1
    48    21    16   ar
    49    27    28    1
@<TRIPOS>MOLECULE
*****
 44 49 0 0 0
SMALL
GASTEIGER

@<TRIPOS>ATOM
      1 C         138.6278  141.8432  160.0314 C.3     1  UNL1        0.0546
      2 C         138.0833  140.8741  159.0243 C.3     1  UNL1        0.0180
      3 C         139.1960  139.9541  158.6175 C.3     1  UNL1        0.0311
      4 C         139.5472  138.7866  157.7437 C.3     1  UNL1        0.0973
      5 N         140.9965  138.4656  157.9595 N.am    1  UNL1       -0.2455
      6 C         141.7661  137.3680  157.2862 C.2     1  UNL1        0.4049
      7 O         143.2181  137.1661  157.6041 O.2     1  UNL1       -0.2262
      8 C         141.5410  139.4346  158.9666 C.3     1  UNL1        0.1053
      9 C         140.4283  140.3546  159.3733 C.3     1  UNL1        0.0903
     10 C         140.0771  141.5222  160.2471 C.3     1  UNL1        0.0261
     11 C         141.6605  140.7552  160.1291 C.2     1  UNL1        0.2267
     12 O         142.8440  141.3106  159.3937 O.2     1  UNL1       -0.2748
     13 N         141.7093  140.6003  161.6203 N.am    1  UNL1       -0.2750
     14 C         142.9415  141.0008  162.3761 C.3     1  UNL1        0.1000
     15 C         142.9901  140.8459  163.8672 C.3     1  UNL1        0.0670
     16 C         141.8066  140.2905  164.6026 C.ar    1  UNL1        0.0583
     17 N         141.8554  140.1356  166.0939 N.ar    1  UNL1       -0.2484
     18 C         140.6719  139.5802  166.8293 C.ar    1  UNL1        0.1023
     19 C         139.4396  139.1797  166.0734 C.ar    1  UNL1        0.0902
     20 C         139.3909  139.3346  164.5823 C.ar    1  UNL1        0.0040
     21 C         140.5744  139.8900  163.8469 C.ar    1  UNL1        0.0113
     22 C         140.5257  140.0449  162.3557 C.3     1  UNL1        0.1213
     23 C         138.2561  138.6243  166.8088 C.3     1  UNL1        0.4200
     24 F         137.0726  138.0689  167.5442 F       1  UNL1       -0.1658
     25 F         138.0354  137.6329  165.7050 F       1  UNL1       -0.1658
     26 F         138.4768  139.6157  167.9127 F       1  UNL1       -0.1658
     27 N         137.8582  142.9407  160.7047 N.3     1  UNL1       -0.2975
     28 H         138.0483  143.7965  160.1831 H       1  UNL1        0.1232
     29 C         138.8291  144.5076  162.5356 C.3     1  UNL1        0.1591
     30 C         139.0759  144.8183  163.9821 C.3     1  UNL1        0.1729
     31 O         138.5986  143.8729  165.0443 O.3     1  UNL1       -0.3511
     32 C         137.8744  142.6167  164.6600 C.3     1  UNL1        0.1437
     33 C         137.6276  142.3060  163.2135 C.3     1  UNL1        0.0503
     34 C         138.1050  143.2515  162.1512 C.3     1  UNL1        0.0865
     35 C         140.6846  145.3032  160.9002 C.3     1  UNL1        0.1742
     36 O         139.3065  145.4530  161.4733 O.3     1  UNL1       -0.3496
     37 O         141.0838  136.4725  156.2951 O.3     1  UNL1       -0.4345
     38 C         141.8893  135.7595  155.2497 C.3     1  UNL1        0.2102
     39 C         142.3524  134.3530  155.4896 C.3     1  UNL1        0.0489
     40 C         141.4020  133.2080  155.3010 C.3     1  UNL1        0.0359
     41 C         141.8651  131.8017  155.5409 C.3     1  UNL1        0.1423
     42 O         143.2787  131.5403  155.9693 O.3     1  UNL1       -0.3538
     43 C         144.2291  132.6853  156.1579 C.3     1  UNL1        0.1423
     44 C         143.7660  134.0917  155.9180 C.3     1  UNL1        0.0359
@<TRIPOS>BOND
     1    35    36    1
     2    36    29    1
     3    29    30    1
     4    30    31    1
     5    31    32    1
     6    32    33    1
     7    33    34    1
     8    34    27    1
     9     1    27    1
    10     1     2    1
    11     3     2    1
    12     3     4    1
    13     4     5    1
    14     5     6   am
    15     6     7    2
    16     6    37    1
    17    37    38    1
    18    38    39    1
    19    39    40    1
    20    40    41    1
    21    41    42    1
    22    42    43    1
    23    43    44    1
    24     5     8    1
    25     8     9    1
    26     9    11    1
    27    11    12    2
    28    11    13   am
    29    13    14    1
    30    14    15    1
    31    15    16    1
    32    16    17   ar
    33    17    18   ar
    34    18    19   ar
    35    19    23    1
    36    23    24    1
    37    23    25    1
    38    23    26    1
    39    19    20   ar
    40    20    21   ar
    41    21    22    1
    42     9    10    1
    43    34    29    1
    44    10     1    1
    45     9     3    1
    46    22    13    1
    47    44    39    1
    48    21    16   ar
    49    27    28    1
@<TRIPOS>MOLECULE
*****
 44 49 0 0 0
SMALL
GASTEIGER

@<TRIPOS>ATOM
      1 C         138.5913  141.8689  159.9901 C.3     1  UNL1        0.0546
      2 C         138.1035  140.5108  159.5808 C.3     1  UNL1        0.0180
      3 C         139.1979  139.8395  158.8052 C.3     1  UNL1        0.0311
      4 C         139.5729  138.5852  158.0729 C.3     1  UNL1        0.0973
      5 N         140.9689  138.7533  157.5504 N.am    1  UNL1       -0.2455
      6 C         141.7414  137.7409  156.7577 C.2     1  UNL1        0.4049
      7 O         143.1359  138.0515  156.3007 O.2     1  UNL1       -0.2262
      8 C         141.4567  140.1113  157.9598 C.3     1  UNL1        0.1053
      9 C         140.3622  140.7827  158.7353 C.3     1  UNL1        0.0903
     10 C         139.9873  142.0369  159.4676 C.3     1  UNL1        0.0261
     11 C         141.5264  141.7259  158.6654 C.2     1  UNL1        0.2267
     12 O         141.6502  142.6805  157.5150 O.2     1  UNL1       -0.2748
     13 N         142.5669  141.7144  159.7458 N.am    1  UNL1       -0.2750
     14 C         143.7312  142.6576  159.6759 C.3     1  UNL1        0.1000
     15 C         144.7716  142.6461  160.7563 C.3     1  UNL1        0.0670
     16 C         144.6478  141.6915  161.9067 C.ar    1  UNL1        0.0583
     17 N         145.6883  141.6800  162.9871 N.ar    1  UNL1       -0.2484
     18 C         145.5645  140.7254  164.1375 C.ar    1  UNL1        0.1023
     19 C         144.4002  139.7822  164.2073 C.ar    1  UNL1        0.0902
     20 C         143.3598  139.7936  163.1269 C.ar    1  UNL1        0.0040
     21 C         143.4836  140.7483  161.9766 C.ar    1  UNL1        0.0113
     22 C         142.4431  140.7598  160.8962 C.3     1  UNL1        0.1213
     23 C         144.2764  138.8275  165.3577 C.3     1  UNL1        0.4200
     24 F         144.1526  137.8728  166.5080 F       1  UNL1       -0.1658
     25 F         145.7606  138.6112  165.3379 F       1  UNL1       -0.1658
     26 F         142.7922  139.0438  165.3775 F       1  UNL1       -0.1658
     27 N         137.8188  142.8813  160.7829 N.3     1  UNL1       -0.2975
     28 H         137.7075  143.7005  160.1854 H       1  UNL1        0.1232
     29 C         138.0422  142.6250  163.3586 C.3     1  UNL1        0.1591
     30 C         138.5765  143.1159  164.6714 C.3     1  UNL1        0.1729
     31 O         139.4217  144.3541  164.7214 O.3     1  UNL1       -0.3511
     32 C         139.7326  145.1014  163.4584 C.3     1  UNL1        0.1437
     33 C         139.1983  144.6105  162.1456 C.3     1  UNL1        0.0503
     34 C         138.3531  143.3722  162.0957 C.3     1  UNL1        0.0865
     35 C         137.8464  140.0397  163.1906 C.3     1  UNL1        0.1742
     36 O         137.1970  141.3868  163.3087 O.3     1  UNL1       -0.3496
     37 O         141.1193  136.4179  156.4219 O.3     1  UNL1       -0.4345
     38 C         141.8250  135.4704  155.4976 C.3     1  UNL1        0.2102
     39 C         142.4453  134.2166  156.0393 C.3     1  UNL1        0.0489
     40 C         141.8781  132.8785  155.6683 C.3     1  UNL1        0.0359
     41 C         142.4984  131.6248  156.2099 C.3     1  UNL1        0.1423
     42 O         143.6858  131.7092  157.1226 O.3     1  UNL1       -0.3538
     43 C         144.2530  133.0473  157.4936 C.3     1  UNL1        0.1423
     44 C         143.6327  134.3010  156.9519 C.3     1  UNL1        0.0359
@<TRIPOS>BOND
     1    35    36    1
     2    36    29    1
     3    29    30    1
     4    30    31    1
     5    31    32    1
     6    32    33    1
     7    33    34    1
     8    34    27    1
     9     1    27    1
    10     1     2    1
    11     3     2    1
    12     3     4    1
    13     4     5    1
    14     5     6   am
    15     6     7    2
    16     6    37    1
    17    37    38    1
    18    38    39    1
    19    39    40    1
    20    40    41    1
    21    41    42    1
    22    42    43    1
    23    43    44    1
    24     5     8    1
    25     8     9    1
    26     9    11    1
    27    11    12    2
    28    11    13   am
    29    13    14    1
    30    14    15    1
    31    15    16    1
    32    16    17   ar
    33    17    18   ar
    34    18    19   ar
    35    19    23    1
    36    23    24    1
    37    23    25    1
    38    23    26    1
    39    19    20   ar
    40    20    21   ar
    41    21    22    1
    42     9    10    1
    43    34    29    1
    44    10     1    1
    45     9     3    1
    46    22    13    1
    47    44    39    1
    48    21    16   ar
    49    27    28    1
@<TRIPOS>MOLECULE
*****
 44 49 0 0 0
SMALL
GASTEIGER

@<TRIPOS>ATOM
      1 C         141.2479  143.9248  160.3001 C.3     1  UNL1        0.0546
      2 C         139.9314  144.3353  159.7101 C.3     1  UNL1        0.0180
      3 C         139.4273  143.2013  158.8674 C.3     1  UNL1        0.0311
      4 C         138.3022  142.7542  157.9820 C.3     1  UNL1        0.0973
      5 N         138.6118  141.3665  157.5039 N.am    1  UNL1       -0.2455
      6 C         137.7552  140.5353  156.5954 C.2     1  UNL1        0.4049
      7 O         138.1973  139.1572  156.2011 O.2     1  UNL1       -0.2262
      8 C         139.9283  140.9560  158.0940 C.3     1  UNL1        0.1053
      9 C         140.4324  142.0899  158.9366 C.3     1  UNL1        0.0903
     10 C         141.5576  142.5371  159.8221 C.3     1  UNL1        0.0261
     11 C         141.4374  140.9786  159.0059 C.2     1  UNL1        0.2267
     12 O         142.4570  140.8205  157.9170 O.2     1  UNL1       -0.2748
     13 N         141.4230  140.0254  160.1640 N.am    1  UNL1       -0.2750
     14 C         142.4280  138.9141  160.2332 C.3     1  UNL1        0.1000
     15 C         142.4135  137.9609  161.3913 C.3     1  UNL1        0.0670
     16 C         141.3940  138.1190  162.4801 C.ar    1  UNL1        0.0583
     17 N         141.3795  137.1657  163.6382 N.ar    1  UNL1       -0.2484
     18 C         140.3600  137.3238  164.7271 C.ar    1  UNL1        0.1023
     19 C         139.3549  138.4352  164.6578 C.ar    1  UNL1        0.0902
     20 C         139.3694  139.3884  163.4997 C.ar    1  UNL1        0.0040
     21 C         140.3889  139.2303  162.4109 C.ar    1  UNL1        0.0113
     22 C         140.4034  140.1835  161.2528 C.3     1  UNL1        0.1213
     23 C         138.3354  138.5934  165.7466 C.3     1  UNL1        0.4200
     24 F         137.3158  138.7515  166.8354 F       1  UNL1       -0.1658
     25 F         138.2578  137.1023  165.8905 F       1  UNL1       -0.1658
     26 F         138.4130  140.0844  165.6027 F       1  UNL1       -0.1658
     27 N         142.1045  144.7560  161.2087 N.3     1  UNL1       -0.2975
     28 H         142.9499  144.9867  160.6867 H       1  UNL1        0.1232
     29 C         141.5315  143.8322  163.5684 C.3     1  UNL1        0.1591
     30 C         141.9760  143.2818  164.8911 C.3     1  UNL1        0.1729
     31 O         143.4378  143.1049  165.1768 O.3     1  UNL1       -0.3511
     32 C         144.4553  143.4784  164.1398 C.3     1  UNL1        0.1437
     33 C         144.0109  144.0287  162.8171 C.3     1  UNL1        0.0503
     34 C         142.5489  144.2056  162.5314 C.3     1  UNL1        0.0865
     35 C         139.2254  144.8554  164.1887 C.3     1  UNL1        0.1742
     36 O         140.0697  144.0090  163.2826 O.3     1  UNL1       -0.3496
     37 O         136.4566  141.0821  156.0812 O.3     1  UNL1       -0.4345
     38 C         135.5128  140.1911  155.3294 C.3     1  UNL1        0.2102
     39 C         134.0549  140.1750  155.6821 C.3     1  UNL1        0.0489
     40 C         133.4800  139.0169  156.4425 C.3     1  UNL1        0.0359
     41 C         132.0222  139.0008  156.7953 C.3     1  UNL1        0.1423
     42 O         131.1393  140.1428  156.3876 O.3     1  UNL1       -0.3538
     43 C         131.7142  141.3009  155.6272 C.3     1  UNL1        0.1423
     44 C         133.1720  141.3170  155.2744 C.3     1  UNL1        0.0359
@<TRIPOS>BOND
     1    35    36    1
     2    36    29    1
     3    29    30    1
     4    30    31    1
     5    31    32    1
     6    32    33    1
     7    33    34    1
     8    34    27    1
     9     1    27    1
    10     1     2    1
    11     3     2    1
    12     3     4    1
    13     4     5    1
    14     5     6   am
    15     6     7    2
    16     6    37    1
    17    37    38    1
    18    38    39    1
    19    39    40    1
    20    40    41    1
    21    41    42    1
    22    42    43    1
    23    43    44    1
    24     5     8    1
    25     8     9    1
    26     9    11    1
    27    11    12    2
    28    11    13   am
    29    13    14    1
    30    14    15    1
    31    15    16    1
    32    16    17   ar
    33    17    18   ar
    34    18    19   ar
    35    19    23    1
    36    23    24    1
    37    23    25    1
    38    23    26    1
    39    19    20   ar
    40    20    21   ar
    41    21    22    1
    42     9    10    1
    43    34    29    1
    44    10     1    1
    45     9     3    1
    46    22    13    1
    47    44    39    1
    48    21    16   ar
    49    27    28    1
@<TRIPOS>MOLECULE
*****
 44 49 0 0 0
SMALL
GASTEIGER

@<TRIPOS>ATOM
      1 C         144.3563  140.2045  161.3688 C.3     1  UNL1        0.0546
      2 C         143.8674  138.8012  161.1645 C.3     1  UNL1        0.0180
      3 C         143.1583  138.7450  159.8439 C.3     1  UNL1        0.0311
      4 C         142.4179  137.8430  158.9014 C.3     1  UNL1        0.0973
      5 N         142.0110  138.6541  157.7071 N.am    1  UNL1       -0.2455
      6 C         141.2489  138.1503  156.5173 C.2     1  UNL1        0.4049
      7 O         140.9117  139.0836  155.3924 O.2     1  UNL1       -0.2262
      8 C         142.4998  140.0574  157.9113 C.3     1  UNL1        0.1053
      9 C         143.2089  140.1136  159.2319 C.3     1  UNL1        0.0903
     10 C         143.9493  141.0156  160.1744 C.3     1  UNL1        0.0261
     11 C         143.2596  141.4821  158.6200 C.2     1  UNL1        0.2267
     12 O         144.1463  141.7432  157.4387 O.2     1  UNL1       -0.2748
     13 N         142.4235  142.5898  159.1895 N.am    1  UNL1       -0.2750
     14 C         142.4741  143.9583  158.5776 C.3     1  UNL1        0.1000
     15 C         141.6380  145.0658  159.1470 C.3     1  UNL1        0.0670
     16 C         140.7513  144.8048  160.3284 C.ar    1  UNL1        0.0583
     17 N         139.9152  145.9124  160.8978 N.ar    1  UNL1       -0.2484
     18 C         139.0284  145.6514  162.0791 C.ar    1  UNL1        0.1023
     19 C         138.9778  144.2827  162.6910 C.ar    1  UNL1        0.0902
     20 C         139.8139  143.1752  162.1216 C.ar    1  UNL1        0.0040
     21 C         140.7006  143.4362  160.9403 C.ar    1  UNL1        0.0113
     22 C         141.5367  142.3287  160.3708 C.3     1  UNL1        0.1213
     23 C         138.0910  144.0217  163.8724 C.3     1  UNL1        0.4200
     24 F         137.2043  143.7606  165.0537 F       1  UNL1       -0.1658
     25 F         138.8341  145.0600  164.6596 F       1  UNL1       -0.1658
     26 F         137.3480  142.9833  163.0852 F       1  UNL1       -0.1658
     27 N         145.1183  140.7083  162.5586 N.3     1  UNL1       -0.2975
     28 H         145.8108  139.9955  162.7881 H       1  UNL1        0.1232
     29 C         144.1374  142.4634  164.2040 C.3     1  UNL1        0.1591
     30 C         143.4124  142.7883  165.4763 C.3     1  UNL1        0.1729
     31 O         142.9433  141.6832  166.3755 O.3     1  UNL1       -0.3511
     32 C         143.1993  140.2530  166.0024 C.3     1  UNL1        0.1437
     33 C         143.9243  139.9280  164.7301 C.3     1  UNL1        0.0503
     34 C         144.3933  141.0333  163.8309 C.3     1  UNL1        0.0865
     35 C         143.6553  144.6509  162.8877 C.3     1  UNL1        0.1742
     36 O         144.6064  143.5685  163.3047 O.3     1  UNL1       -0.3496
     37 O         140.8240  136.7132  156.4523 O.3     1  UNL1       -0.4345
     38 C         141.5317  135.7628  155.5326 C.3     1  UNL1        0.2102
     39 C         142.2272  134.5567  156.0909 C.3     1  UNL1        0.0489
     40 C         141.8064  133.1825  155.6615 C.3     1  UNL1        0.0359
     41 C         142.5020  131.9765  156.2198 C.3     1  UNL1        0.1423
     42 O         143.6182  132.1447  157.2075 O.3     1  UNL1       -0.3538
     43 C         144.0390  133.5189  157.6370 C.3     1  UNL1        0.1423
     44 C         143.3435  134.7249  157.0787 C.3     1  UNL1        0.0359
@<TRIPOS>BOND
     1    35    36    1
     2    36    29    1
     3    29    30    1
     4    30    31    1
     5    31    32    1
     6    32    33    1
     7    33    34    1
     8    34    27    1
     9     1    27    1
    10     1     2    1
    11     3     2    1
    12     3     4    1
    13     4     5    1
    14     5     6   am
    15     6     7    2
    16     6    37    1
    17    37    38    1
    18    38    39    1
    19    39    40    1
    20    40    41    1
    21    41    42    1
    22    42    43    1
    23    43    44    1
    24     5     8    1
    25     8     9    1
    26     9    11    1
    27    11    12    2
    28    11    13   am
    29    13    14    1
    30    14    15    1
    31    15    16    1
    32    16    17   ar
    33    17    18   ar
    34    18    19   ar
    35    19    23    1
    36    23    24    1
    37    23    25    1
    38    23    26    1
    39    19    20   ar
    40    20    21   ar
    41    21    22    1
    42     9    10    1
    43    34    29    1
    44    10     1    1
    45     9     3    1
    46    22    13    1
    47    44    39    1
    48    21    16   ar
    49    27    28    1
@<TRIPOS>MOLECULE
*****
 44 49 0 0 0
SMALL
GASTEIGER

@<TRIPOS>ATOM
      1 C         139.8874  139.0083  158.3776 C.3     1  UNL1        0.0546
      2 C         139.0128  140.2268  158.3972 C.3     1  UNL1        0.0180
      3 C         139.7636  141.3252  159.0898 C.3     1  UNL1        0.0311
      4 C         139.6871  142.7571  159.5300 C.3     1  UNL1        0.0973
      5 N         140.9785  143.1025  160.2105 N.am    1  UNL1       -0.2455
      6 C         141.3329  144.4329  160.8061 C.2     1  UNL1        0.4049
      7 O         142.6694  144.6307  161.4576 O.2     1  UNL1       -0.2262
      8 C         141.8531  141.8841  160.1910 C.3     1  UNL1        0.1053
      9 C         141.1023  140.7856  159.4983 C.3     1  UNL1        0.0903
     10 C         141.1788  139.3537  159.0582 C.3     1  UNL1        0.0261
     11 C         142.4409  140.2461  159.9069 C.2     1  UNL1        0.2267
     12 O         143.5133  140.0426  158.8780 O.2     1  UNL1       -0.2748
     13 N         142.7072  139.9099  161.3443 N.am    1  UNL1       -0.2750
     14 C         144.0458  139.3703  161.7528 C.3     1  UNL1        0.1000
     15 C         144.3120  139.0341  163.1902 C.3     1  UNL1        0.0670
     16 C         143.2396  139.2375  164.2190 C.ar    1  UNL1        0.0583
     17 N         143.5058  138.9014  165.6565 N.ar    1  UNL1       -0.2484
     18 C         142.4334  139.1048  166.6853 C.ar    1  UNL1        0.1023
     19 C         141.0947  139.6444  166.2768 C.ar    1  UNL1        0.0902
     20 C         140.8285  139.9806  164.8394 C.ar    1  UNL1        0.0040
     21 C         141.9010  139.7771  163.8105 C.ar    1  UNL1        0.0113
     22 C         141.6348  140.1133  162.3732 C.3     1  UNL1        0.1213
     23 C         140.0223  139.8478  167.3056 C.3     1  UNL1        0.4200
     24 F         138.9499  140.0513  168.3345 F       1  UNL1       -0.1658
     25 F         138.9877  139.8838  166.2201 F       1  UNL1       -0.1658
     26 F         141.0569  139.8119  168.3911 F       1  UNL1       -0.1658
     27 N         139.5330  137.6780  157.7821 N.3     1  UNL1       -0.2975
     28 H         139.8018  136.9690  158.4643 H       1  UNL1        0.1232
     29 C         139.2472  137.1098  155.2631 C.3     1  UNL1        0.1591
     30 C         139.8406  136.6940  153.9497 C.3     1  UNL1        0.1729
     31 O         141.3133  136.4306  153.8420 O.3     1  UNL1       -0.3511
     32 C         142.1927  136.5830  155.0477 C.3     1  UNL1        0.1437
     33 C         141.5992  136.9988  156.3610 C.3     1  UNL1        0.0503
     34 C         140.1264  137.2622  156.4687 C.3     1  UNL1        0.0865
     35 C         136.9874  137.7437  154.1487 C.3     1  UNL1        0.1742
     36 O         137.7744  137.3732  155.3708 O.3     1  UNL1       -0.3496
     37 O         140.3509  145.5653  160.7501 O.3     1  UNL1       -0.4345
     38 C         139.5398  145.9153  161.9623 C.3     1  UNL1        0.2102
     39 C         139.2053  144.8574  162.9719 C.3     1  UNL1        0.0489
     40 C         138.0849  143.8958  162.7075 C.3     1  UNL1        0.0359
     41 C         137.7504  142.8381  163.7170 C.3     1  UNL1        0.1423
     42 O         138.5363  142.7420  164.9911 O.3     1  UNL1       -0.3538
     43 C         139.6567  143.7036  165.2555 C.3     1  UNL1        0.1423
     44 C         139.9912  144.7613  164.2459 C.3     1  UNL1        0.0359
@<TRIPOS>BOND
     1    35    36    1
     2    36    29    1
     3    29    30    1
     4    30    31    1
     5    31    32    1
     6    32    33    1
     7    33    34    1
     8    34    27    1
     9     1    27    1
    10     1     2    1
    11     3     2    1
    12     3     4    1
    13     4     5    1
    14     5     6   am
    15     6     7    2
    16     6    37    1
    17    37    38    1
    18    38    39    1
    19    39    40    1
    20    40    41    1
    21    41    42    1
    22    42    43    1
    23    43    44    1
    24     5     8    1
    25     8     9    1
    26     9    11    1
    27    11    12    2
    28    11    13   am
    29    13    14    1
    30    14    15    1
    31    15    16    1
    32    16    17   ar
    33    17    18   ar
    34    18    19   ar
    35    19    23    1
    36    23    24    1
    37    23    25    1
    38    23    26    1
    39    19    20   ar
    40    20    21   ar
    41    21    22    1
    42     9    10    1
    43    34    29    1
    44    10     1    1
    45     9     3    1
    46    22    13    1
    47    44    39    1
    48    21    16   ar
    49    27    28    1
@<TRIPOS>MOLECULE
*****
 44 49 0 0 0
SMALL
GASTEIGER

@<TRIPOS>ATOM
      1 C         138.5048  140.0776  159.6313 C.3     1  UNL1        0.0546
      2 C         138.3077  141.1830  158.6367 C.3     1  UNL1        0.0180
      3 C         139.5733  141.3246  157.8442 C.3     1  UNL1        0.0311
      4 C         140.2337  142.0953  156.7397 C.3     1  UNL1        0.0973
      5 N         141.6212  141.5537  156.5618 N.am    1  UNL1       -0.2455
      6 C         142.6338  142.0333  155.5644 C.2     1  UNL1        0.4049
      7 O         143.9882  141.3916  155.5029 O.2     1  UNL1       -0.2262
      8 C         141.8183  140.4483  157.5564 C.3     1  UNL1        0.1053
      9 C         140.5527  140.3067  158.3489 C.3     1  UNL1        0.0903
     10 C         139.8923  139.5360  159.4534 C.3     1  UNL1        0.0261
     11 C         141.5320  139.2888  158.8537 C.2     1  UNL1        0.2267
     12 O         141.5936  137.9296  158.2221 O.2     1  UNL1       -0.2748
     13 N         142.4498  139.6300  159.9901 N.am    1  UNL1       -0.2750
     14 C         143.4291  138.6122  160.4948 C.3     1  UNL1        0.1000
     15 C         144.3468  138.9535  161.6311 C.3     1  UNL1        0.0670
     16 C         144.2853  140.3126  162.2627 C.ar    1  UNL1        0.0583
     17 N         145.2030  140.6539  163.3990 N.ar    1  UNL1       -0.2484
     18 C         145.1415  142.0131  164.0306 C.ar    1  UNL1        0.1023
     19 C         144.1621  143.0310  163.5258 C.ar    1  UNL1        0.0902
     20 C         143.2444  142.6897  162.3894 C.ar    1  UNL1        0.0040
     21 C         143.3060  141.3305  161.7579 C.ar    1  UNL1        0.0113
     22 C         142.3882  140.9892  160.6216 C.3     1  UNL1        0.1213
     23 C         144.1005  144.3902  164.1573 C.3     1  UNL1        0.4200
     24 F         144.0389  145.7493  164.7888 F       1  UNL1       -0.1658
     25 F         143.3622  144.9127  162.9607 F       1  UNL1       -0.1658
     26 F         144.8389  143.8676  165.3539 F       1  UNL1       -0.1658
     27 N         137.4923  139.5979  160.6286 N.3     1  UNL1       -0.2975
     28 H         136.7448  140.2917  160.6464 H       1  UNL1        0.1232
     29 C         137.7249  140.4478  163.0727 C.3     1  UNL1        0.1591
     30 C         138.1295  140.2108  164.4975 C.3     1  UNL1        0.1729
     31 O         138.7063  138.8868  164.9030 O.3     1  UNL1       -0.3511
     32 C         138.8784  137.7998  163.8838 C.3     1  UNL1        0.1437
     33 C         138.4737  138.0368  162.4590 C.3     1  UNL1        0.0503
     34 C         137.8969  139.3609  162.0534 C.3     1  UNL1        0.0865
     35 C         138.0586  142.9027  162.2904 C.3     1  UNL1        0.1742
     36 O         137.1481  141.7717  162.6672 O.3     1  UNL1       -0.3496
     37 O         142.2919  143.1547  154.6286 O.3     1  UNL1       -0.4345
     38 C         142.5593  144.5748  155.0306 C.3     1  UNL1        0.2102
     39 C         141.4479  145.4220  155.5756 C.3     1  UNL1        0.0489
     40 C         140.6236  146.2651  154.6484 C.3     1  UNL1        0.0359
     41 C         139.5123  147.1123  155.1935 C.3     1  UNL1        0.1423
     42 O         139.2251  147.1163  156.6657 O.3     1  UNL1       -0.3538
     43 C         140.0494  146.2732  157.5929 C.3     1  UNL1        0.1423
     44 C         141.1607  145.4261  157.0479 C.3     1  UNL1        0.0359
@<TRIPOS>BOND
     1    35    36    1
     2    36    29    1
     3    29    30    1
     4    30    31    1
     5    31    32    1
     6    32    33    1
     7    33    34    1
     8    34    27    1
     9     1    27    1
    10     1     2    1
    11     3     2    1
    12     3     4    1
    13     4     5    1
    14     5     6   am
    15     6     7    2
    16     6    37    1
    17    37    38    1
    18    38    39    1
    19    39    40    1
    20    40    41    1
    21    41    42    1
    22    42    43    1
    23    43    44    1
    24     5     8    1
    25     8     9    1
    26     9    11    1
    27    11    12    2
    28    11    13   am
    29    13    14    1
    30    14    15    1
    31    15    16    1
    32    16    17   ar
    33    17    18   ar
    34    18    19   ar
    35    19    23    1
    36    23    24    1
    37    23    25    1
    38    23    26    1
    39    19    20   ar
    40    20    21   ar
    41    21    22    1
    42     9    10    1
    43    34    29    1
    44    10     1    1
    45     9     3    1
    46    22    13    1
    47    44    39    1
    48    21    16   ar
    49    27    28    1
@<TRIPOS>MOLECULE
*****
 44 49 0 0 0
SMALL
GASTEIGER

@<TRIPOS>ATOM
      1 C         140.0275  140.6260  158.3464 C.3     1  UNL1        0.0546
      2 C         139.3364  139.6563  157.4343 C.3     1  UNL1        0.0180
      3 C         140.2748  138.5154  157.1740 C.3     1  UNL1        0.0311
      4 C         140.4277  137.2110  156.4494 C.3     1  UNL1        0.0973
      5 N         141.7932  136.6694  156.7528 N.am    1  UNL1       -0.2455
      6 C         142.3668  135.3837  156.2350 C.2     1  UNL1        0.4049
      7 O         143.7544  134.9700  156.6267 O.2     1  UNL1       -0.2262
      8 C         142.4843  137.6391  157.6650 C.3     1  UNL1        0.1053
      9 C         141.5459  138.7800  157.9253 C.3     1  UNL1        0.0903
     10 C         141.3930  140.0844  158.6499 C.3     1  UNL1        0.0261
     11 C         142.8169  139.0446  158.6766 C.2     1  UNL1        0.2267
     12 O         144.0806  139.3503  157.9285 O.2     1  UNL1       -0.2748
     13 N         142.8243  139.0035  160.1760 N.am    1  UNL1       -0.2750
     14 C         144.0953  139.2680  160.9273 C.3     1  UNL1        0.1000
     15 C         144.1026  139.2269  162.4267 C.3     1  UNL1        0.0670
     16 C         142.8389  138.9212  163.1748 C.ar    1  UNL1        0.0583
     17 N         142.8463  138.8801  164.6743 N.ar    1  UNL1       -0.2484
     18 C         141.5826  138.5744  165.4224 C.ar    1  UNL1        0.1023
     19 C         140.3116  138.3098  164.6710 C.ar    1  UNL1        0.0902
     20 C         140.3042  138.3509  163.1716 C.ar    1  UNL1        0.0040
     21 C         141.5679  138.6566  162.4235 C.ar    1  UNL1        0.0113
     22 C         141.5606  138.6978  160.9241 C.3     1  UNL1        0.1213
     23 C         139.0479  138.0041  165.4191 C.3     1  UNL1        0.4200
     24 F         137.7842  137.6984  166.1672 F       1  UNL1       -0.1658
     25 F         139.4796  138.9226  166.5237 F       1  UNL1       -0.1658
     26 F         138.6161  137.0857  164.3145 F       1  UNL1       -0.1658
     27 N         139.4539  141.9117  158.8643 N.3     1  UNL1       -0.2975
     28 H         140.2113  142.5949  158.8601 H       1  UNL1        0.1232
     29 C         138.8368  143.2420  161.0089 C.3     1  UNL1        0.1591
     30 C         138.2172  143.2907  162.3741 C.3     1  UNL1        0.1729
     31 O         137.5953  142.0578  162.9599 O.3     1  UNL1       -0.3511
     32 C         137.5928  140.7762  162.1805 C.3     1  UNL1        0.1437
     33 C         138.2123  140.7275  160.8152 C.3     1  UNL1        0.0503
     34 C         138.8343  141.9604  160.2295 C.3     1  UNL1        0.0865
     35 C         140.0622  145.5111  161.3243 C.3     1  UNL1        0.1742
     36 O         139.4588  144.4748  160.4231 O.3     1  UNL1       -0.3496
     37 O         141.5529  134.5118  155.3254 O.3     1  UNL1       -0.4345
     38 C         141.4822  133.0335  155.5691 C.3     1  UNL1        0.2102
     39 C         142.4823  132.1187  154.9265 C.3     1  UNL1        0.0489
     40 C         143.4867  131.3931  155.7718 C.3     1  UNL1        0.0359
     41 C         144.4868  130.4783  155.1292 C.3     1  UNL1        0.1423
     42 O         144.4824  130.2892  153.6411 O.3     1  UNL1       -0.3538
     43 C         143.4781  131.0148  152.7958 C.3     1  UNL1        0.1423
     44 C         142.4780  131.9295  153.4385 C.3     1  UNL1        0.0359
@<TRIPOS>BOND
     1    35    36    1
     2    36    29    1
     3    29    30    1
     4    30    31    1
     5    31    32    1
     6    32    33    1
     7    33    34    1
     8    34    27    1
     9     1    27    1
    10     1     2    1
    11     3     2    1
    12     3     4    1
    13     4     5    1
    14     5     6   am
    15     6     7    2
    16     6    37    1
    17    37    38    1
    18    38    39    1
    19    39    40    1
    20    40    41    1
    21    41    42    1
    22    42    43    1
    23    43    44    1
    24     5     8    1
    25     8     9    1
    26     9    11    1
    27    11    12    2
    28    11    13   am
    29    13    14    1
    30    14    15    1
    31    15    16    1
    32    16    17   ar
    33    17    18   ar
    34    18    19   ar
    35    19    23    1
    36    23    24    1
    37    23    25    1
    38    23    26    1
    39    19    20   ar
    40    20    21   ar
    41    21    22    1
    42     9    10    1
    43    34    29    1
    44    10     1    1
    45     9     3    1
    46    22    13    1
    47    44    39    1
    48    21    16   ar
    49    27    28    1
@<TRIPOS>MOLECULE
*****
 44 49 0 0 0
SMALL
GASTEIGER

@<TRIPOS>ATOM
      1 C         141.0719  144.1102  159.9859 C.3     1  UNL1        0.0546
      2 C         140.1527  142.9404  159.7952 C.3     1  UNL1        0.0180
      3 C         140.7123  141.7808  160.5646 C.3     1  UNL1        0.0311
      4 C         140.4901  140.3411  160.9223 C.3     1  UNL1        0.0973
      5 N         141.6180  139.9045  161.8096 N.am    1  UNL1       -0.2455
      6 C         141.7954  138.5379  162.4022 C.2     1  UNL1        0.4049
      7 O         142.9798  138.2471  163.2754 O.2     1  UNL1       -0.2262
      8 C         142.5373  141.0743  162.0003 C.3     1  UNL1        0.1053
      9 C         141.9776  142.2339  161.2309 C.3     1  UNL1        0.0903
     10 C         142.1998  143.6736  160.8732 C.3     1  UNL1        0.0261
     11 C         143.2428  142.6871  161.8971 C.2     1  UNL1        0.2267
     12 O         144.4089  143.1348  161.0667 O.2     1  UNL1       -0.2748
     13 N         143.3419  142.6925  163.3939 N.am    1  UNL1       -0.2750
     14 C         144.6070  143.1457  164.0601 C.3     1  UNL1        0.1000
     15 C         144.7061  143.1511  165.5568 C.3     1  UNL1        0.0670
     16 C         143.5399  142.7034  166.3873 C.ar    1  UNL1        0.0583
     17 N         143.6390  142.7088  167.8840 N.ar    1  UNL1       -0.2484
     18 C         142.4729  142.2611  168.7145 C.ar    1  UNL1        0.1023
     19 C         141.2077  141.8079  168.0482 C.ar    1  UNL1        0.0902
     20 C         141.1086  141.8025  166.5515 C.ar    1  UNL1        0.0040
     21 C         142.2748  142.2502  165.7210 C.ar    1  UNL1        0.0113
     22 C         142.1757  142.2448  164.2243 C.3     1  UNL1        0.1213
     23 C         140.0415  141.3602  168.8786 C.3     1  UNL1        0.4200
     24 F         138.8754  140.9125  169.7091 F       1  UNL1       -0.1658
     25 F         139.8183  142.7740  169.3274 F       1  UNL1       -0.1658
     26 F         140.2647  139.9464  168.4298 F       1  UNL1       -0.1658
     27 N         140.8945  145.4768  159.3933 N.3     1  UNL1       -0.2975
     28 H         139.9727  145.8052  159.6812 H       1  UNL1        0.1232
     29 C         142.1363  145.0996  157.1426 C.3     1  UNL1        0.1591
     30 C         142.2192  145.2894  155.6570 C.3     1  UNL1        0.1729
     31 O         141.1431  146.0462  154.9364 O.3     1  UNL1       -0.3511
     32 C         139.9841  146.6132  155.7015 C.3     1  UNL1        0.1437
     33 C         139.9012  146.4234  157.1871 C.3     1  UNL1        0.0503
     34 C         140.9774  145.6666  157.9077 C.3     1  UNL1        0.0865
     35 C         143.5849  142.9603  157.4162 C.3     1  UNL1        0.1742
     36 O         143.2124  144.3429  157.8632 O.3     1  UNL1       -0.3496
     37 O         140.7884  137.4622  162.1214 O.3     1  UNL1       -0.4345
     38 C         139.3327  137.7106  162.3845 C.3     1  UNL1        0.2102
     39 C         138.9015  138.3513  163.6704 C.3     1  UNL1        0.0489
     40 C         138.9094  137.5578  164.9433 C.3     1  UNL1        0.0359
     41 C         138.4782  138.1986  166.2291 C.3     1  UNL1        0.1423
     42 O         138.0392  139.6328  166.2421 O.3     1  UNL1       -0.3538
     43 C         138.0314  140.4263  164.9693 C.3     1  UNL1        0.1423
     44 C         138.4625  139.7856  163.6834 C.3     1  UNL1        0.0359
@<TRIPOS>BOND
     1    35    36    1
     2    36    29    1
     3    29    30    1
     4    30    31    1
     5    31    32    1
     6    32    33    1
     7    33    34    1
     8    34    27    1
     9     1    27    1
    10     1     2    1
    11     3     2    1
    12     3     4    1
    13     4     5    1
    14     5     6   am
    15     6     7    2
    16     6    37    1
    17    37    38    1
    18    38    39    1
    19    39    40    1
    20    40    41    1
    21    41    42    1
    22    42    43    1
    23    43    44    1
    24     5     8    1
    25     8     9    1
    26     9    11    1
    27    11    12    2
    28    11    13   am
    29    13    14    1
    30    14    15    1
    31    15    16    1
    32    16    17   ar
    33    17    18   ar
    34    18    19   ar
    35    19    23    1
    36    23    24    1
    37    23    25    1
    38    23    26    1
    39    19    20   ar
    40    20    21   ar
    41    21    22    1
    42     9    10    1
    43    34    29    1
    44    10     1    1
    45     9     3    1
    46    22    13    1
    47    44    39    1
    48    21    16   ar
    49    27    28    1
