@<TRIPOS>MOLECULE
*****
 37 41 0 0 0
SMALL
GASTEIGER

@<TRIPOS>ATOM
      1 C         140.5345  139.5311  160.0050 C.ar    1  UNL1        0.1233
      2 C         140.8092  139.1865  161.4388 C.ar    1  UNL1        0.1180
      3 N         140.4066  140.3594  162.2828 N.ar    1  UNL1       -0.2233
      4 N         139.8832  141.4289  161.3705 N.ar    1  UNL1       -0.0634
      5 N         139.9622  140.9169  159.9628 N.ar    1  UNL1       -0.1287
      6 C         140.5094  140.4474  163.7766 C.3     1  UNL1        0.1834
      7 C         141.7703  141.0631  164.3070 C.3     1  UNL1        0.0386
      8 C         142.1708  141.2915  165.7344 C.3     1  UNL1        0.0324
      9 C         141.4096  140.9607  166.9839 C.ar    1  UNL1        0.0190
     10 C         142.1736  141.3574  168.2123 C.ar    1  UNL1        0.1373
     11 F         143.5235  141.9984  168.0816 F       1  UNL1       -0.2045
     12 C         141.5877  141.1132  169.5713 C.ar    1  UNL1        0.0294
     13 C         140.2379  140.4722  169.7020 C.ar    1  UNL1        0.0036
     14 C         139.4739  140.0755  168.4736 C.ar    1  UNL1        0.0147
     15 C         140.0598  140.3198  167.1146 C.ar    1  UNL1        0.0523
     16 N         139.1378  139.8514  166.0280 N.am    1  UNL1       -0.2491
     17 C         139.3378  139.9081  164.5425 C.2     1  UNL1        0.2520
     18 O         138.3195  139.3966  163.5672 O.2     1  UNL1       -0.2724
     19 C         137.8447  139.2461  166.4879 C.3     1  UNL1        0.2016
     20 C         137.7405  137.7633  166.6898 C.3     1  UNL1        0.4160
     21 F         137.6364  136.2807  166.8917 F       1  UNL1       -0.1682
     22 F         138.7916  137.3690  165.6950 F       1  UNL1       -0.1682
     23 F         136.6687  137.9785  167.7170 F       1  UNL1       -0.1682
     24 C         139.9009  137.3380  156.7587 C.ar    1  UNL1        0.1547
     25 C         139.6476  138.2238  157.9423 C.ar    1  UNL1        0.0400
     26 C         140.7877  138.6452  158.8213 C.ar    1  UNL1        0.0241
     27 C         142.1811  138.1808  158.5165 C.ar    1  UNL1        0.0033
     28 C         142.4343  137.2950  157.3328 C.ar    1  UNL1        0.0207
     29 C         141.2942  136.8736  156.4539 C.ar    1  UNL1        0.0994
     30 N         141.5475  135.9877  155.2702 N.ar    1  UNL1       -0.2839
     31 C         141.7512  136.4432  153.8556 C.ar    1  UNL1        0.1826
     32 N         141.9711  135.2279  153.0045 N.ar    1  UNL1       -0.2280
     33 C         141.9033  134.0213  153.8929 C.ar    1  UNL1        0.0786
     34 C         142.0684  132.5953  153.4576 C.3     1  UNL1        0.0538
     35 C         141.6415  134.4909  155.2932 C.ar    1  UNL1        0.0963
     36 C         138.3384  137.7844  154.7316 C.3     1  UNL1        0.2525
     37 O         138.7607  136.9166  155.8798 O.3     1  UNL1       -0.4700
@<TRIPOS>BOND
     1    36    37    1
     2    37    24    1
     3    24    25   ar
     4    25    26   ar
     5    26     1    1
     6     1     2   ar
     7     2     3   ar
     8     3     6    1
     9     6     7    1
    10     7     8    1
    11     8     9    1
    12     9    10   ar
    13    10    11    1
    14    10    12   ar
    15    12    13   ar
    16    13    14   ar
    17    14    15   ar
    18    15    16    1
    19    16    19    1
    20    19    20    1
    21    20    21    1
    22    20    22    1
    23    20    23    1
    24    16    17   am
    25    17    18    2
    26     3     4   ar
    27     4     5   ar
    28    26    27   ar
    29    27    28   ar
    30    28    29   ar
    31    29    30    1
    32    30    31   ar
    33    31    32   ar
    34    32    33   ar
    35    33    34    1
    36    33    35   ar
    37    29    24   ar
    38    35    30   ar
    39     5     1   ar
    40    17     6    1
    41    15     9   ar
@<TRIPOS>MOLECULE
*****
 37 41 0 0 0
SMALL
GASTEIGER

@<TRIPOS>ATOM
      1 C         141.1135  142.5201  160.7252 C.ar    1  UNL1        0.1233
      2 C         140.8488  142.7295  162.1867 C.ar    1  UNL1        0.1180
      3 N         141.2679  141.4876  162.9163 N.ar    1  UNL1       -0.2233
      4 N         141.7915  140.5107  161.9056 N.ar    1  UNL1       -0.0634
      5 N         141.6961  141.1488  160.5514 N.ar    1  UNL1       -0.1287
      6 C         141.1789  141.2623  164.3966 C.3     1  UNL1        0.1834
      7 C         142.3770  141.6876  165.1928 C.3     1  UNL1        0.0386
      8 C         142.5956  141.5970  166.6740 C.3     1  UNL1        0.0324
      9 C         141.6703  141.0589  167.7249 C.ar    1  UNL1        0.0190
     10 C         142.2795  141.1540  169.0923 C.ar    1  UNL1        0.1373
     11 F         143.6520  141.7345  169.2631 F       1  UNL1       -0.2045
     12 C         141.5162  140.6686  170.2888 C.ar    1  UNL1        0.0294
     13 C         140.1437  140.0880  170.1179 C.ar    1  UNL1        0.0036
     14 C         139.5345  139.9929  168.7505 C.ar    1  UNL1        0.0147
     15 C         140.2978  140.4783  167.5540 C.ar    1  UNL1        0.0523
     16 N         139.5116  140.2926  166.2901 N.am    1  UNL1       -0.2491
     17 C         139.9037  140.6414  164.8849 C.2     1  UNL1        0.2520
     18 O         139.0065  140.3960  163.7082 O.2     1  UNL1       -0.2724
     19 C         138.1537  139.6765  166.4529 C.3     1  UNL1        0.2016
     20 C         138.0075  138.1842  166.4959 C.3     1  UNL1        0.4160
     21 F         137.8613  136.6920  166.5389 F       1  UNL1       -0.1682
     22 F         139.0929  137.8656  165.5109 F       1  UNL1       -0.1682
     23 F         136.8959  138.3219  167.4937 F       1  UNL1       -0.1682
     24 C         139.6432  144.1378  157.4130 C.ar    1  UNL1        0.1547
     25 C         139.9137  143.1495  158.5083 C.ar    1  UNL1        0.0400
     26 C         140.8430  143.5084  159.6297 C.ar    1  UNL1        0.0241
     27 C         141.5018  144.8557  159.6557 C.ar    1  UNL1        0.0033
     28 C         141.2314  145.8440  158.5603 C.ar    1  UNL1        0.0207
     29 C         140.3021  145.4851  157.4389 C.ar    1  UNL1        0.0994
     30 N         140.0316  146.4735  156.3435 N.ar    1  UNL1       -0.2839
     31 C         138.9652  147.5284  156.3512 C.ar    1  UNL1        0.1826
     32 N         139.0546  148.2873  155.0605 N.ar    1  UNL1       -0.2280
     33 C         140.1763  147.7016  154.2551 C.ar    1  UNL1        0.0786
     34 C         140.6168  148.1569  152.8954 C.3     1  UNL1        0.0538
     35 C         140.7801  146.5806  155.0480 C.ar    1  UNL1        0.0963
     36 C         139.2587  143.1823  155.0278 C.3     1  UNL1        0.2525
     37 O         138.7139  143.7789  156.2916 O.3     1  UNL1       -0.4700
@<TRIPOS>BOND
     1    36    37    1
     2    37    24    1
     3    24    25   ar
     4    25    26   ar
     5    26     1    1
     6     1     2   ar
     7     2     3   ar
     8     3     6    1
     9     6     7    1
    10     7     8    1
    11     8     9    1
    12     9    10   ar
    13    10    11    1
    14    10    12   ar
    15    12    13   ar
    16    13    14   ar
    17    14    15   ar
    18    15    16    1
    19    16    19    1
    20    19    20    1
    21    20    21    1
    22    20    22    1
    23    20    23    1
    24    16    17   am
    25    17    18    2
    26     3     4   ar
    27     4     5   ar
    28    26    27   ar
    29    27    28   ar
    30    28    29   ar
    31    29    30    1
    32    30    31   ar
    33    31    32   ar
    34    32    33   ar
    35    33    34    1
    36    33    35   ar
    37    29    24   ar
    38    35    30   ar
    39     5     1   ar
    40    17     6    1
    41    15     9   ar
@<TRIPOS>MOLECULE
*****
 37 41 0 0 0
SMALL
GASTEIGER

@<TRIPOS>ATOM
      1 C         139.3835  142.9559  161.0880 C.ar    1  UNL1        0.1233
      2 C         140.2970  142.9625  162.2778 C.ar    1  UNL1        0.1180
      3 N         139.6589  142.1387  163.3567 N.ar    1  UNL1       -0.2233
      4 N         138.3511  141.6229  162.8338 N.ar    1  UNL1       -0.0634
      5 N         138.1808  142.1280  161.4317 N.ar    1  UNL1       -0.1287
      6 C         140.2287  141.8766  164.7193 C.3     1  UNL1        0.1834
      7 C         139.9578  142.9306  165.7517 C.3     1  UNL1        0.0386
      8 C         140.3853  142.9635  167.1891 C.3     1  UNL1        0.0324
      9 C         141.1893  141.9506  167.9492 C.ar    1  UNL1        0.0190
     10 C         141.3952  142.3716  169.3741 C.ar    1  UNL1        0.1373
     11 F         140.8201  143.6676  169.8637 F       1  UNL1       -0.2045
     12 C         142.1761  141.4967  170.3093 C.ar    1  UNL1        0.0294
     13 C         142.7511  140.2007  169.8196 C.ar    1  UNL1        0.0036
     14 C         142.5453  139.7797  168.3947 C.ar    1  UNL1        0.0147
     15 C         141.7643  140.6546  167.4595 C.ar    1  UNL1        0.0523
     16 N         141.6774  140.0515  166.0889 N.am    1  UNL1       -0.2491
     17 C         140.9940  140.5953  164.8693 C.2     1  UNL1        0.2520
     18 O         140.9897  139.8752  163.5535 O.2     1  UNL1       -0.2724
     19 C         142.3648  138.7297  165.9147 C.3     1  UNL1        0.2016
     20 C         143.8370  138.6816  165.6310 C.3     1  UNL1        0.4160
     21 F         145.3091  138.6335  165.3473 F       1  UNL1       -0.1682
     22 F         143.8785  139.8427  164.6823 F       1  UNL1       -0.1682
     23 F         143.9760  137.5057  166.5520 F       1  UNL1       -0.1682
     24 C         139.2675  143.8195  157.2163 C.ar    1  UNL1        0.1547
     25 C         139.0214  143.1208  158.5206 C.ar    1  UNL1        0.0400
     26 C         139.6295  143.6545  159.7836 C.ar    1  UNL1        0.0241
     27 C         140.4837  144.8869  159.7424 C.ar    1  UNL1        0.0033
     28 C         140.7297  145.5855  158.4380 C.ar    1  UNL1        0.0207
     29 C         140.1216  145.0519  157.1750 C.ar    1  UNL1        0.0994
     30 N         140.3677  145.7506  155.8706 N.ar    1  UNL1       -0.2839
     31 C         141.1620  145.2118  154.7179 C.ar    1  UNL1        0.1826
     32 N         141.1478  146.2390  153.6249 N.ar    1  UNL1       -0.2280
     33 C         140.3448  147.4126  154.1021 C.ar    1  UNL1        0.0786
     34 C         140.0717  148.6677  153.3273 C.3     1  UNL1        0.0538
     35 C         139.8626  147.1107  155.4900 C.ar    1  UNL1        0.0963
     36 C         137.2258  143.5832  155.6270 C.3     1  UNL1        0.2525
     37 O         138.6593  143.2858  155.9532 O.3     1  UNL1       -0.4700
@<TRIPOS>BOND
     1    36    37    1
     2    37    24    1
     3    24    25   ar
     4    25    26   ar
     5    26     1    1
     6     1     2   ar
     7     2     3   ar
     8     3     6    1
     9     6     7    1
    10     7     8    1
    11     8     9    1
    12     9    10   ar
    13    10    11    1
    14    10    12   ar
    15    12    13   ar
    16    13    14   ar
    17    14    15   ar
    18    15    16    1
    19    16    19    1
    20    19    20    1
    21    20    21    1
    22    20    22    1
    23    20    23    1
    24    16    17   am
    25    17    18    2
    26     3     4   ar
    27     4     5   ar
    28    26    27   ar
    29    27    28   ar
    30    28    29   ar
    31    29    30    1
    32    30    31   ar
    33    31    32   ar
    34    32    33   ar
    35    33    34    1
    36    33    35   ar
    37    29    24   ar
    38    35    30   ar
    39     5     1   ar
    40    17     6    1
    41    15     9   ar
@<TRIPOS>MOLECULE
*****
 37 41 0 0 0
SMALL
GASTEIGER

@<TRIPOS>ATOM
      1 C         142.6767  137.6794  157.6790 C.ar    1  UNL1        0.1233
      2 C         141.8909  138.1430  158.8695 C.ar    1  UNL1        0.1180
      3 N         142.4527  139.4620  159.3108 N.ar    1  UNL1       -0.2233
      4 N         143.5858  139.8135  158.3929 N.ar    1  UNL1       -0.0634
      5 N         143.7242  138.7118  157.3844 N.ar    1  UNL1       -0.1287
      6 C         141.9667  140.2849  160.4669 C.3     1  UNL1        0.1834
      7 C         140.7373  141.1053  160.2106 C.3     1  UNL1        0.0386
      8 C         140.0121  142.0220  161.1506 C.3     1  UNL1        0.0324
      9 C         140.3369  142.3448  162.5790 C.ar    1  UNL1        0.0190
     10 C         139.3509  143.3146  163.1596 C.ar    1  UNL1        0.1373
     11 F         138.2204  143.8289  162.3184 F       1  UNL1       -0.2045
     12 C         139.4953  143.7701  164.5814 C.ar    1  UNL1        0.0294
     13 C         140.6257  143.2559  165.4226 C.ar    1  UNL1        0.0036
     14 C         141.6118  142.2861  164.8420 C.ar    1  UNL1        0.0147
     15 C         141.4674  141.8306  163.4202 C.ar    1  UNL1        0.0523
     16 N         142.5521  140.8665  163.0407 N.am    1  UNL1       -0.2491
     17 C         142.7744  140.1786  161.7264 C.2     1  UNL1        0.2520
     18 O         143.9128  139.2310  161.4897 O.2     1  UNL1       -0.2724
     19 C         143.5461  140.5483  164.1181 C.3     1  UNL1        0.2016
     20 C         144.9681  141.0072  163.9860 C.3     1  UNL1        0.4160
     21 F         146.3900  141.4662  163.8539 F       1  UNL1       -0.1682
     22 F         144.6680  142.4390  163.6544 F       1  UNL1       -0.1682
     23 F         145.4450  139.6210  164.3039 F       1  UNL1       -0.1682
     24 C         143.0388  133.9130  156.4819 C.ar    1  UNL1        0.1547
     25 C         143.2614  135.1855  157.2440 C.ar    1  UNL1        0.0400
     26 C         142.4542  136.4067  156.9168 C.ar    1  UNL1        0.0241
     27 C         141.4243  136.3553  155.8274 C.ar    1  UNL1        0.0033
     28 C         141.2017  135.0827  155.0653 C.ar    1  UNL1        0.0207
     29 C         142.0089  133.8616  155.3925 C.ar    1  UNL1        0.0994
     30 N         141.7863  132.5889  154.6303 N.ar    1  UNL1       -0.2839
     31 C         142.5840  132.1163  153.4512 C.ar    1  UNL1        0.1826
     32 N         142.0175  130.8008  153.0056 N.ar    1  UNL1       -0.2280
     33 C         140.8698  130.4603  153.9093 C.ar    1  UNL1        0.0786
     34 C         140.0150  129.2307  153.8240 C.3     1  UNL1        0.0538
     35 C         140.7269  131.5655  154.9135 C.ar    1  UNL1        0.0963
     36 C         144.8648  132.7388  157.9090 C.3     1  UNL1        0.2525
     37 O         143.8460  132.6918  156.8091 O.3     1  UNL1       -0.4700
@<TRIPOS>BOND
     1    36    37    1
     2    37    24    1
     3    24    25   ar
     4    25    26   ar
     5    26     1    1
     6     1     2   ar
     7     2     3   ar
     8     3     6    1
     9     6     7    1
    10     7     8    1
    11     8     9    1
    12     9    10   ar
    13    10    11    1
    14    10    12   ar
    15    12    13   ar
    16    13    14   ar
    17    14    15   ar
    18    15    16    1
    19    16    19    1
    20    19    20    1
    21    20    21    1
    22    20    22    1
    23    20    23    1
    24    16    17   am
    25    17    18    2
    26     3     4   ar
    27     4     5   ar
    28    26    27   ar
    29    27    28   ar
    30    28    29   ar
    31    29    30    1
    32    30    31   ar
    33    31    32   ar
    34    32    33   ar
    35    33    34    1
    36    33    35   ar
    37    29    24   ar
    38    35    30   ar
    39     5     1   ar
    40    17     6    1
    41    15     9   ar
@<TRIPOS>MOLECULE
*****
 37 41 0 0 0
SMALL
GASTEIGER

@<TRIPOS>ATOM
      1 C         142.8773  137.1335  157.5040 C.ar    1  UNL1        0.1233
      2 C         142.6762  137.4020  158.9660 C.ar    1  UNL1        0.1180
      3 N         143.0550  138.8288  159.2317 N.ar    1  UNL1       -0.2233
      4 N         143.4903  139.4422  157.9340 N.ar    1  UNL1       -0.0634
      5 N         143.3805  138.3944  156.8661 N.ar    1  UNL1       -0.1287
      6 C         143.0070  139.5208  160.5617 C.3     1  UNL1        0.1834
      7 C         144.3187  140.0372  161.0745 C.3     1  UNL1        0.0386
      8 C         144.6009  140.7652  162.3552 C.3     1  UNL1        0.0324
      9 C         143.6412  141.1566  163.4396 C.ar    1  UNL1        0.0190
     10 C         144.3391  141.8758  164.5557 C.ar    1  UNL1        0.1373
     11 F         145.8181  142.1157  164.4843 F       1  UNL1       -0.2045
     12 C         143.5580  142.3551  165.7431 C.ar    1  UNL1        0.0294
     13 C         142.0790  142.1153  165.8145 C.ar    1  UNL1        0.0036
     14 C         141.3811  141.3961  164.6984 C.ar    1  UNL1        0.0147
     15 C         142.1622  140.9168  163.5110 C.ar    1  UNL1        0.0523
     16 N         141.2777  140.2262  162.5156 N.am    1  UNL1       -0.2491
     17 C         141.6536  139.6049  161.2031 C.2     1  UNL1        0.2520
     18 O         140.6526  138.9428  160.3033 O.2     1  UNL1       -0.2724
     19 C         139.8251  140.1463  162.8812 C.3     1  UNL1        0.2016
     20 C         139.2454  138.8530  163.3726 C.3     1  UNL1        0.4160
     21 F         138.6657  137.5598  163.8640 F       1  UNL1       -0.1682
     22 F         140.5339  138.2382  163.8327 F       1  UNL1       -0.1682
     23 F         137.8759  139.3137  162.9693 F       1  UNL1       -0.1682
     24 C         143.0616  133.2842  156.5563 C.ar    1  UNL1        0.1547
     25 C         143.3185  134.5851  157.2574 C.ar    1  UNL1        0.0400
     26 C         142.6204  135.8325  156.8030 C.ar    1  UNL1        0.0241
     27 C         141.6654  135.7790  155.6476 C.ar    1  UNL1        0.0033
     28 C         141.4085  134.4781  154.9466 C.ar    1  UNL1        0.0207
     29 C         142.1065  133.2307  155.4009 C.ar    1  UNL1        0.0994
     30 N         141.8496  131.9297  154.6998 N.ar    1  UNL1       -0.2839
     31 C         142.6964  131.3293  153.6170 C.ar    1  UNL1        0.1826
     32 N         142.0709  130.0293  153.2065 N.ar    1  UNL1       -0.2280
     33 C         140.8374  129.8261  154.0355 C.ar    1  UNL1        0.0786
     34 C         139.9045  128.6543  153.9557 C.3     1  UNL1        0.0538
     35 C         140.7006  131.0007  154.9585 C.ar    1  UNL1        0.0963
     36 C         145.0954  131.6722  156.4337 C.3     1  UNL1        0.2525
     37 O         143.7597  132.0367  157.0107 O.3     1  UNL1       -0.4700
@<TRIPOS>BOND
     1    36    37    1
     2    37    24    1
     3    24    25   ar
     4    25    26   ar
     5    26     1    1
     6     1     2   ar
     7     2     3   ar
     8     3     6    1
     9     6     7    1
    10     7     8    1
    11     8     9    1
    12     9    10   ar
    13    10    11    1
    14    10    12   ar
    15    12    13   ar
    16    13    14   ar
    17    14    15   ar
    18    15    16    1
    19    16    19    1
    20    19    20    1
    21    20    21    1
    22    20    22    1
    23    20    23    1
    24    16    17   am
    25    17    18    2
    26     3     4   ar
    27     4     5   ar
    28    26    27   ar
    29    27    28   ar
    30    28    29   ar
    31    29    30    1
    32    30    31   ar
    33    31    32   ar
    34    32    33   ar
    35    33    34    1
    36    33    35   ar
    37    29    24   ar
    38    35    30   ar
    39     5     1   ar
    40    17     6    1
    41    15     9   ar
@<TRIPOS>MOLECULE
*****
 37 41 0 0 0
SMALL
GASTEIGER

@<TRIPOS>ATOM
      1 C         139.4886  143.4048  160.3622 C.ar    1  UNL1        0.1233
      2 C         140.2673  143.1919  161.6265 C.ar    1  UNL1        0.1180
      3 N         139.3104  142.7412  162.6900 N.ar    1  UNL1       -0.2233
      4 N         137.9403  142.6756  162.0831 N.ar    1  UNL1       -0.0634
      5 N         138.0503  143.0856  160.6445 N.ar    1  UNL1       -0.1287
      6 C         139.6619  142.4137  164.1110 C.3     1  UNL1        0.1834
      7 C         139.6218  143.5640  165.0730 C.3     1  UNL1        0.0386
      8 C         139.9169  143.5638  166.5437 C.3     1  UNL1        0.0324
      9 C         140.3251  142.4135  167.4156 C.ar    1  UNL1        0.0190
     10 C         140.5226  142.8470  168.8379 C.ar    1  UNL1        0.1373
     11 F         140.3087  144.2813  169.2214 F       1  UNL1       -0.2045
     12 C         140.9339  141.8462  169.8768 C.ar    1  UNL1        0.0294
     13 C         141.1477  140.4119  169.4933 C.ar    1  UNL1        0.0036
     14 C         140.9502  139.9784  168.0710 C.ar    1  UNL1        0.0147
     15 C         140.5389  140.9792  167.0322 C.ar    1  UNL1        0.0523
     16 N         140.3974  140.3410  165.6821 N.am    1  UNL1       -0.2491
     17 C         140.0071  140.9793  164.3820 C.2     1  UNL1        0.2520
     18 O         139.9058  140.2092  163.0988 O.2     1  UNL1       -0.2724
     19 C         140.6841  138.8697  165.6244 C.3     1  UNL1        0.2016
     20 C         139.5659  137.8960  165.3971 C.3     1  UNL1        0.4160
     21 F         138.4477  136.9224  165.1699 F       1  UNL1       -0.1682
     22 F         138.5342  138.6065  166.2223 F       1  UNL1       -0.1682
     23 F         140.4680  137.0606  164.5378 F       1  UNL1       -0.1682
     24 C         139.9592  143.8799  156.4504 C.ar    1  UNL1        0.1547
     25 C         139.3982  143.4274  157.7658 C.ar    1  UNL1        0.0400
     26 C         140.0496  143.8573  159.0468 C.ar    1  UNL1        0.0241
     27 C         141.2620  144.7398  159.0122 C.ar    1  UNL1        0.0033
     28 C         141.8230  145.1923  157.6968 C.ar    1  UNL1        0.0207
     29 C         141.1716  144.7624  156.4159 C.ar    1  UNL1        0.0994
     30 N         141.7327  145.2150  155.1004 N.ar    1  UNL1       -0.2839
     31 C         141.0596  146.1332  154.1238 C.ar    1  UNL1        0.1826
     32 N         141.9763  146.3144  152.9505 N.ar    1  UNL1       -0.2280
     33 C         143.2160  145.5083  153.2019 C.ar    1  UNL1        0.0786
     34 C         144.3986  145.4006  152.2855 C.3     1  UNL1        0.0538
     35 C         143.0655  144.8288  154.5306 C.ar    1  UNL1        0.0963
     36 C         137.8912  142.9569  155.1771 C.3     1  UNL1        0.2525
     37 O         139.3078  143.4500  155.1695 O.3     1  UNL1       -0.4700
@<TRIPOS>BOND
     1    36    37    1
     2    37    24    1
     3    24    25   ar
     4    25    26   ar
     5    26     1    1
     6     1     2   ar
     7     2     3   ar
     8     3     6    1
     9     6     7    1
    10     7     8    1
    11     8     9    1
    12     9    10   ar
    13    10    11    1
    14    10    12   ar
    15    12    13   ar
    16    13    14   ar
    17    14    15   ar
    18    15    16    1
    19    16    19    1
    20    19    20    1
    21    20    21    1
    22    20    22    1
    23    20    23    1
    24    16    17   am
    25    17    18    2
    26     3     4   ar
    27     4     5   ar
    28    26    27   ar
    29    27    28   ar
    30    28    29   ar
    31    29    30    1
    32    30    31   ar
    33    31    32   ar
    34    32    33   ar
    35    33    34    1
    36    33    35   ar
    37    29    24   ar
    38    35    30   ar
    39     5     1   ar
    40    17     6    1
    41    15     9   ar
@<TRIPOS>MOLECULE
*****
 37 41 0 0 0
SMALL
GASTEIGER

@<TRIPOS>ATOM
      1 C         142.7719  143.3301  160.9260 C.ar    1  UNL1        0.1233
      2 C         142.8613  142.4059  162.1040 C.ar    1  UNL1        0.1180
      3 N         142.2238  143.0881  163.2780 N.ar    1  UNL1       -0.2233
      4 N         141.7403  144.4340  162.8254 N.ar    1  UNL1       -0.0634
      5 N         142.0790  144.5836  161.3718 N.ar    1  UNL1       -0.1287
      6 C         142.0928  142.5236  164.6615 C.3     1  UNL1        0.1834
      7 C         143.1919  142.8820  165.6174 C.3     1  UNL1        0.0386
      8 C         143.3495  142.4806  167.0541 C.3     1  UNL1        0.0324
      9 C         142.4472  141.6218  167.8897 C.ar    1  UNL1        0.0190
     10 C         142.9752  141.4677  169.2852 C.ar    1  UNL1        0.1373
     11 F         144.2581  142.1373  169.6799 F       1  UNL1       -0.2045
     12 C         142.2203  140.6440  170.2860 C.ar    1  UNL1        0.0294
     13 C         140.9374  139.9744  169.8913 C.ar    1  UNL1        0.0036
     14 C         140.4094  140.1285  168.4958 C.ar    1  UNL1        0.0147
     15 C         141.1644  140.9521  167.4950 C.ar    1  UNL1        0.0523
     16 N         140.4669  140.9760  166.1672 N.am    1  UNL1       -0.2491
     17 C         140.8801  141.6754  164.9061 C.2     1  UNL1        0.2520
     18 O         140.0756  141.6098  163.6418 O.2     1  UNL1       -0.2724
     19 C         139.1871  140.1976  166.0903 C.3     1  UNL1        0.2016
     20 C         139.2051  138.7673  165.6384 C.3     1  UNL1        0.4160
     21 F         139.2232  137.3371  165.1866 F       1  UNL1       -0.1682
     22 F         140.6769  138.6815  165.3617 F       1  UNL1       -0.1682
     23 F         137.7245  138.6781  165.8618 F       1  UNL1       -0.1682
     24 C         143.1254  143.3876  156.9736 C.ar    1  UNL1        0.1547
     25 C         142.6121  143.6677  158.3549 C.ar    1  UNL1        0.0400
     26 C         143.2851  143.0500  159.5446 C.ar    1  UNL1        0.0241
     27 C         144.4714  142.1522  159.3531 C.ar    1  UNL1        0.0033
     28 C         144.9846  141.8721  157.9717 C.ar    1  UNL1        0.0207
     29 C         144.3116  142.4898  156.7820 C.ar    1  UNL1        0.0994
     30 N         144.8250  142.2096  155.4006 N.ar    1  UNL1       -0.2839
     31 C         144.2620  141.2071  154.4373 C.ar    1  UNL1        0.1826
     32 N         145.0805  141.2608  153.1815 N.ar    1  UNL1       -0.2280
     33 C         146.1492  142.2964  153.3686 C.ar    1  UNL1        0.0786
     34 C         147.1927  142.6786  152.3611 C.3     1  UNL1        0.0538
     35 C         145.9913  142.8829  154.7401 C.ar    1  UNL1        0.0963
     36 C         141.2290  143.3650  155.1979 C.3     1  UNL1        0.2525
     37 O         142.4523  144.0052  155.7838 O.3     1  UNL1       -0.4700
@<TRIPOS>BOND
     1    36    37    1
     2    37    24    1
     3    24    25   ar
     4    25    26   ar
     5    26     1    1
     6     1     2   ar
     7     2     3   ar
     8     3     6    1
     9     6     7    1
    10     7     8    1
    11     8     9    1
    12     9    10   ar
    13    10    11    1
    14    10    12   ar
    15    12    13   ar
    16    13    14   ar
    17    14    15   ar
    18    15    16    1
    19    16    19    1
    20    19    20    1
    21    20    21    1
    22    20    22    1
    23    20    23    1
    24    16    17   am
    25    17    18    2
    26     3     4   ar
    27     4     5   ar
    28    26    27   ar
    29    27    28   ar
    30    28    29   ar
    31    29    30    1
    32    30    31   ar
    33    31    32   ar
    34    32    33   ar
    35    33    34    1
    36    33    35   ar
    37    29    24   ar
    38    35    30   ar
    39     5     1   ar
    40    17     6    1
    41    15     9   ar
@<TRIPOS>MOLECULE
*****
 37 41 0 0 0
SMALL
GASTEIGER

@<TRIPOS>ATOM
      1 C         139.8069  139.0418  161.1143 C.ar    1  UNL1        0.1233
      2 C         139.8519  140.0245  162.2467 C.ar    1  UNL1        0.1180
      3 N         140.3105  139.2957  163.4750 N.ar    1  UNL1       -0.2233
      4 N         140.5488  137.8626  163.1017 N.ar    1  UNL1       -0.0634
      5 N         140.2375  137.7057  161.6427 N.ar    1  UNL1       -0.1287
      6 C         140.4978  139.8948  164.8373 C.3     1  UNL1        0.1834
      7 C         139.4214  139.5890  165.8364 C.3     1  UNL1        0.0386
      8 C         139.3182  140.0334  167.2653 C.3     1  UNL1        0.0324
      9 C         140.2657  140.8933  168.0482 C.ar    1  UNL1        0.0190
     10 C         139.7855  141.0981  169.4544 C.ar    1  UNL1        0.1373
     11 F         138.5007  140.4702  169.9071 F       1  UNL1       -0.2045
     12 C         140.5901  141.9309  170.4078 C.ar    1  UNL1        0.0294
     13 C         141.8749  142.5588  169.9550 C.ar    1  UNL1        0.0036
     14 C         142.3551  142.3539  168.5488 C.ar    1  UNL1        0.0147
     15 C         141.5505  141.5212  167.5954 C.ar    1  UNL1        0.0523
     16 N         142.2051  141.4442  166.2479 N.am    1  UNL1       -0.2491
     17 C         141.7367  140.7204  165.0205 C.2     1  UNL1        0.2520
     18 O         142.5023  140.7321  163.7306 O.2     1  UNL1       -0.2724
     19 C         143.4994  142.1897  166.1097 C.3     1  UNL1        0.2016
     20 C         143.5896  143.3718  165.1906 C.3     1  UNL1        0.4160
     21 F         143.6797  144.5538  164.2716 F       1  UNL1       -0.1682
     22 F         142.1290  143.7135  165.1884 F       1  UNL1       -0.1682
     23 F         145.0722  143.1726  165.0800 F       1  UNL1       -0.1682
     24 C         139.5858  138.8553  157.1563 C.ar    1  UNL1        0.1547
     25 C         139.9906  138.5545  158.5690 C.ar    1  UNL1        0.0400
     26 C         139.4022  139.3425  159.7016 C.ar    1  UNL1        0.0241
     27 C         138.4092  140.4313  159.4215 C.ar    1  UNL1        0.0033
     28 C         138.0045  140.7320  158.0088 C.ar    1  UNL1        0.0207
     29 C         138.5928  139.9440  156.8763 C.ar    1  UNL1        0.0994
     30 N         138.1881  140.2448  155.4635 N.ar    1  UNL1       -0.2839
     31 C         138.9754  141.0509  154.4733 C.ar    1  UNL1        0.1826
     32 N         138.1989  141.0965  153.1909 N.ar    1  UNL1       -0.2280
     33 C         136.9316  140.3188  153.3883 C.ar    1  UNL1        0.0786
     34 C         135.8593  140.1049  152.3615 C.3     1  UNL1        0.0538
     35 C         136.9249  139.7924  154.7929 C.ar    1  UNL1        0.0963
     36 C         139.4179  136.9093  155.4432 C.3     1  UNL1        0.2525
     37 O         140.1742  138.0673  156.0237 O.3     1  UNL1       -0.4700
@<TRIPOS>BOND
     1    36    37    1
     2    37    24    1
     3    24    25   ar
     4    25    26   ar
     5    26     1    1
     6     1     2   ar
     7     2     3   ar
     8     3     6    1
     9     6     7    1
    10     7     8    1
    11     8     9    1
    12     9    10   ar
    13    10    11    1
    14    10    12   ar
    15    12    13   ar
    16    13    14   ar
    17    14    15   ar
    18    15    16    1
    19    16    19    1
    20    19    20    1
    21    20    21    1
    22    20    22    1
    23    20    23    1
    24    16    17   am
    25    17    18    2
    26     3     4   ar
    27     4     5   ar
    28    26    27   ar
    29    27    28   ar
    30    28    29   ar
    31    29    30    1
    32    30    31   ar
    33    31    32   ar
    34    32    33   ar
    35    33    34    1
    36    33    35   ar
    37    29    24   ar
    38    35    30   ar
    39     5     1   ar
    40    17     6    1
    41    15     9   ar
@<TRIPOS>MOLECULE
*****
 37 41 0 0 0
SMALL
GASTEIGER

@<TRIPOS>ATOM
      1 C         142.7347  138.8832  160.9335 C.ar    1  UNL1        0.1233
      2 C         142.1972  137.8027  160.0427 C.ar    1  UNL1        0.1180
      3 N         142.7867  137.9922  158.6765 N.ar    1  UNL1       -0.2233
      4 N         143.6886  139.1899  158.7230 N.ar    1  UNL1       -0.0634
      5 N         143.6564  139.7406  160.1179 N.ar    1  UNL1       -0.1287
      6 C         142.5210  137.1347  157.4748 C.3     1  UNL1        0.1834
      7 C         143.2778  135.8407  157.4186 C.3     1  UNL1        0.0386
      8 C         143.2340  134.7770  156.3619 C.3     1  UNL1        0.0324
      9 C         142.4229  134.7444  155.1005 C.ar    1  UNL1        0.0190
     10 C         142.6768  133.4902  154.3179 C.ar    1  UNL1        0.1373
     11 F         143.6446  132.4670  154.8341 F       1  UNL1       -0.2045
     12 C         141.9628  133.2591  153.0192 C.ar    1  UNL1        0.0294
     13 C         140.9950  134.2823  152.5030 C.ar    1  UNL1        0.0036
     14 C         140.7412  135.5366  153.2855 C.ar    1  UNL1        0.0147
     15 C         141.4551  135.7676  154.5843 C.ar    1  UNL1        0.0523
     16 N         141.0595  137.0760  155.2020 N.am    1  UNL1       -0.2491
     17 C         141.5338  137.6845  156.4884 C.2     1  UNL1        0.2520
     18 O         141.0461  139.0131  156.9852 O.2     1  UNL1       -0.2724
     19 C         140.0568  137.8827  154.4313 C.3     1  UNL1        0.2016
     20 C         138.5914  137.6005  154.5826 C.3     1  UNL1        0.4160
     21 F         137.1260  137.3182  154.7339 F       1  UNL1       -0.1682
     22 F         138.6805  136.8650  155.8869 F       1  UNL1       -0.1682
     23 F         138.3215  138.3068  153.2870 F       1  UNL1       -0.1682
     24 C         142.1788  140.6256  164.4556 C.ar    1  UNL1        0.1547
     25 C         142.5057  140.4359  163.0040 C.ar    1  UNL1        0.0400
     26 C         142.4078  139.0730  162.3851 C.ar    1  UNL1        0.0241
     27 C         141.9830  137.8999  163.2178 C.ar    1  UNL1        0.0033
     28 C         141.6561  138.0897  164.6694 C.ar    1  UNL1        0.0207
     29 C         141.7540  139.4525  165.2882 C.ar    1  UNL1        0.0994
     30 N         141.4271  139.6422  166.7399 N.ar    1  UNL1       -0.2839
     31 C         142.3831  139.4917  167.8860 C.ar    1  UNL1        0.1826
     32 N         141.6336  139.7723  169.1546 N.ar    1  UNL1       -0.2280
     33 C         140.2145  140.0962  168.7927 C.ar    1  UNL1        0.0786
     34 C         139.1158  140.4401  169.7543 C.3     1  UNL1        0.0538
     35 C         140.0868  140.0158  167.3003 C.ar    1  UNL1        0.0963
     36 C         143.5499  142.4204  165.7396 C.3     1  UNL1        0.2525
     37 O         142.2767  141.9884  165.0744 O.3     1  UNL1       -0.4700
@<TRIPOS>BOND
     1    36    37    1
     2    37    24    1
     3    24    25   ar
     4    25    26   ar
     5    26     1    1
     6     1     2   ar
     7     2     3   ar
     8     3     6    1
     9     6     7    1
    10     7     8    1
    11     8     9    1
    12     9    10   ar
    13    10    11    1
    14    10    12   ar
    15    12    13   ar
    16    13    14   ar
    17    14    15   ar
    18    15    16    1
    19    16    19    1
    20    19    20    1
    21    20    21    1
    22    20    22    1
    23    20    23    1
    24    16    17   am
    25    17    18    2
    26     3     4   ar
    27     4     5   ar
    28    26    27   ar
    29    27    28   ar
    30    28    29   ar
    31    29    30    1
    32    30    31   ar
    33    31    32   ar
    34    32    33   ar
    35    33    34    1
    36    33    35   ar
    37    29    24   ar
    38    35    30   ar
    39     5     1   ar
    40    17     6    1
    41    15     9   ar
