@<TRIPOS>MOLECULE
*****
 34 37 0 0 0
SMALL
GASTEIGER

@<TRIPOS>ATOM
      1 N         142.2538  139.8501  166.5849 N.3     1  UNL1       -0.2680
      2 C         142.8825  141.2090  166.4948 C.3     1  UNL1        0.0897
      3 C         143.8736  141.5063  165.4088 C.3     1  UNL1        0.0897
      4 N         144.2359  140.4447  164.4129 N.3     1  UNL1       -0.2700
      5 C         143.6072  139.0858  164.5030 C.3     1  UNL1        0.0897
      6 C         142.6161  138.7885  165.5890 C.3     1  UNL1        0.0897
      7 C         141.2627  139.5528  167.6708 C.3     1  UNL1        0.1067
      8 C         139.8200  139.9221  167.4912 C.3     1  UNL1        0.1530
      9 C         139.3433  140.4673  166.1775 C.ar    1  UNL1        0.0018
     10 C         139.3446  141.9475  165.9350 C.ar    1  UNL1       -0.0020
     11 C         138.8679  142.4927  164.6214 C.ar    1  UNL1        0.0060
     12 C         138.3899  141.5576  163.5504 C.ar    1  UNL1        0.0748
     13 C         138.3886  140.0773  163.7929 C.ar    1  UNL1        0.0233
     14 C         138.8652  139.5321  165.1065 C.ar    1  UNL1       -0.0238
     15 C         138.8639  138.0519  165.3491 C.3     1  UNL1        0.0306
     16 C         137.8639  139.4058  162.5585 C.3     1  UNL1        0.2352
     17 O         137.5410  140.4710  161.5531 O.3     1  UNL1       -0.4404
     18 C         137.8661  141.8009  162.1660 C.2     1  UNL1        0.3413
     19 O         137.6970  143.1391  161.5099 O.2     1  UNL1       -0.2449
     20 O         138.8540  139.7462  168.6252 O.3     1  UNL1       -0.3504
     21 C         139.5658  141.7905  170.0620 C.3     1  UNL1        0.0347
     22 C         139.1516  140.3521  169.9647 C.3     1  UNL1        0.1426
     23 C         145.2270  140.7421  163.3270 C.3     1  UNL1        0.0769
     24 C         145.3690  142.1406  162.8034 C.3     1  UNL1        0.0438
     25 C         144.1473  142.9664  162.5292 C.ar    1  UNL1       -0.0177
     26 C         143.9815  144.3027  163.1901 C.ar    1  UNL1       -0.0033
     27 C         142.7597  145.1286  162.9159 C.ar    1  UNL1        0.0130
     28 C         141.7038  144.6183  161.9807 C.ar    1  UNL1        0.1023
     29 C         141.8696  143.2820  161.3198 C.ar    1  UNL1        0.1479
     30 C         143.0914  142.4561  161.5940 C.ar    1  UNL1        0.0334
     31 C         140.4820  145.4442  161.7065 C.1     1  UNL1        0.1035
     32 N         139.2602  146.2701  161.4323 N.1     1  UNL1       -0.1907
     33 O         140.8137  142.7716  160.3846 O.3     1  UNL1       -0.4708
     34 C         141.1876  142.3293  159.0009 C.3     1  UNL1        0.2525
@<TRIPOS>BOND
     1    21    22    1
     2    22    20    1
     3    20     8    1
     4     8     7    1
     5     7     1    1
     6     1     2    1
     7     2     3    1
     8     3     4    1
     9     4    23    1
    10    23    24    1
    11    24    25    1
    12    25    26   ar
    13    26    27   ar
    14    27    28   ar
    15    28    31    1
    16    31    32    3
    17    28    29   ar
    18    29    33    1
    19    33    34    1
    20    29    30   ar
    21     4     5    1
    22     5     6    1
    23     8     9    1
    24     9    10   ar
    25    10    11   ar
    26    11    12   ar
    27    12    13   ar
    28    13    14   ar
    29    14    15    1
    30    13    16    1
    31    16    17    1
    32    17    18    1
    33    18    19    2
    34     6     1    1
    35    14     9   ar
    36    30    25   ar
    37    18    12    1
@<TRIPOS>MOLECULE
*****
 34 37 0 0 0
SMALL
GASTEIGER

@<TRIPOS>ATOM
      1 N         142.0947  139.3060  166.0119 N.3     1  UNL1       -0.2680
      2 C         143.3358  139.9567  165.4767 C.3     1  UNL1        0.0897
      3 C         143.8621  139.5708  164.1262 C.3     1  UNL1        0.0897
      4 N         143.1475  138.5343  163.3108 N.3     1  UNL1       -0.2700
      5 C         141.9064  137.8836  163.8459 C.3     1  UNL1        0.0897
      6 C         141.3800  138.2695  165.1965 C.3     1  UNL1        0.0897
      7 C         141.5683  139.6919  167.3624 C.3     1  UNL1        0.1067
      8 C         140.2571  140.4111  167.4788 C.3     1  UNL1        0.1530
      9 C         139.8009  141.3219  166.3777 C.ar    1  UNL1        0.0018
     10 C         140.3763  142.7020  166.2592 C.ar    1  UNL1       -0.0020
     11 C         139.9201  143.6128  165.1582 C.ar    1  UNL1        0.0060
     12 C         138.8885  143.1435  164.1756 C.ar    1  UNL1        0.0748
     13 C         138.3131  141.7633  164.2941 C.ar    1  UNL1        0.0233
     14 C         138.7692  140.8525  165.3951 C.ar    1  UNL1       -0.0238
     15 C         138.1938  139.4723  165.5137 C.3     1  UNL1        0.0306
     16 C         137.3183  141.5792  163.1866 C.3     1  UNL1        0.2352
     17 O         137.2790  142.8456  162.3837 O.3     1  UNL1       -0.4404
     18 C         138.2494  143.8124  162.9949 C.2     1  UNL1        0.3413
     19 O         138.5312  145.2037  162.5105 O.2     1  UNL1       -0.2449
     20 O         139.4021  140.2194  168.6963 O.3     1  UNL1       -0.3504
     21 C         139.9101  142.3660  170.0689 C.3     1  UNL1        0.0347
     22 C         139.7836  140.8734  169.9912 C.3     1  UNL1        0.1426
     23 C         143.6739  138.1485  161.9602 C.3     1  UNL1        0.0769
     24 C         144.1849  139.2039  161.0248 C.3     1  UNL1        0.0438
     25 C         143.3423  140.4065  160.7187 C.ar    1  UNL1       -0.0177
     26 C         142.1246  140.2686  159.8537 C.ar    1  UNL1       -0.0033
     27 C         141.2820  141.4711  159.5476 C.ar    1  UNL1        0.0130
     28 C         141.6570  142.8117  160.1065 C.ar    1  UNL1        0.1023
     29 C         142.8746  142.9496  160.9715 C.ar    1  UNL1        0.1479
     30 C         143.7173  141.7470  161.2776 C.ar    1  UNL1        0.0334
     31 C         140.8143  144.0143  159.8004 C.1     1  UNL1        0.1035
     32 N         139.9718  145.2170  159.4943 N.1     1  UNL1       -0.1907
     33 O         143.2496  144.2901  161.5304 O.3     1  UNL1       -0.4708
     34 C         144.1034  144.3776  162.7607 C.3     1  UNL1        0.2525
@<TRIPOS>BOND
     1    21    22    1
     2    22    20    1
     3    20     8    1
     4     8     7    1
     5     7     1    1
     6     1     2    1
     7     2     3    1
     8     3     4    1
     9     4    23    1
    10    23    24    1
    11    24    25    1
    12    25    26   ar
    13    26    27   ar
    14    27    28   ar
    15    28    31    1
    16    31    32    3
    17    28    29   ar
    18    29    33    1
    19    33    34    1
    20    29    30   ar
    21     4     5    1
    22     5     6    1
    23     8     9    1
    24     9    10   ar
    25    10    11   ar
    26    11    12   ar
    27    12    13   ar
    28    13    14   ar
    29    14    15    1
    30    13    16    1
    31    16    17    1
    32    17    18    1
    33    18    19    2
    34     6     1    1
    35    14     9   ar
    36    30    25   ar
    37    18    12    1
@<TRIPOS>MOLECULE
*****
 34 37 0 0 0
SMALL
GASTEIGER

@<TRIPOS>ATOM
      1 N         141.4817  138.0074  164.3045 N.3     1  UNL1       -0.2680
      2 C         140.0508  137.6750  164.6082 C.3     1  UNL1        0.0897
      3 C         139.0063  137.8113  163.5404 C.3     1  UNL1        0.0897
      4 N         139.3925  138.2800  162.1689 N.3     1  UNL1       -0.2700
      5 C         140.8234  138.6124  161.8651 C.3     1  UNL1        0.0897
      6 C         141.8680  138.4761  162.9329 C.3     1  UNL1        0.0897
      7 C         142.5263  137.8711  165.3723 C.3     1  UNL1        0.1067
      8 C         142.9233  139.0644  166.1897 C.3     1  UNL1        0.1530
      9 C         142.8302  140.4412  165.6014 C.ar    1  UNL1        0.0018
     10 C         141.6696  141.3269  165.9455 C.ar    1  UNL1       -0.0020
     11 C         141.5764  142.7035  165.3572 C.ar    1  UNL1        0.0060
     12 C         142.6439  143.1945  164.4247 C.ar    1  UNL1        0.0748
     13 C         143.8045  142.3087  164.0806 C.ar    1  UNL1        0.0233
     14 C         143.8977  140.9321  164.6688 C.ar    1  UNL1       -0.0238
     15 C         145.0583  140.0463  164.3247 C.3     1  UNL1        0.0306
     16 C         144.6981  143.0605  163.1391 C.3     1  UNL1        0.2352
     17 O         144.0898  144.4108  162.9015 O.3     1  UNL1       -0.4404
     18 C         142.8202  144.4937  163.6960 C.2     1  UNL1        0.3413
     19 O         141.8902  145.6693  163.7520 O.2     1  UNL1       -0.2449
     20 O         143.4136  138.8812  167.5954 O.3     1  UNL1       -0.3504
     21 C         142.8574  140.5809  169.4800 C.3     1  UNL1        0.0347
     22 C         142.5556  139.3056  168.7503 C.3     1  UNL1        0.1426
     23 C         138.3479  138.4163  161.1011 C.3     1  UNL1        0.0769
     24 C         137.7398  139.7570  160.8134 C.3     1  UNL1        0.0438
     25 C         137.8770  140.8717  161.8077 C.ar    1  UNL1       -0.0177
     26 C         137.5584  140.6304  163.2535 C.ar    1  UNL1       -0.0033
     27 C         137.6956  141.7450  164.2478 C.ar    1  UNL1        0.0130
     28 C         138.1513  143.1009  163.7964 C.ar    1  UNL1        0.1023
     29 C         138.4699  143.3422  162.3506 C.ar    1  UNL1        0.1479
     30 C         138.3327  142.2276  161.3562 C.ar    1  UNL1        0.0334
     31 C         138.2885  144.2157  164.7907 C.1     1  UNL1        0.1035
     32 N         138.4258  145.3303  165.7851 N.1     1  UNL1       -0.1907
     33 O         138.9256  144.6981  161.8992 O.3     1  UNL1       -0.4708
     34 C         139.9964  144.8206  160.8559 C.3     1  UNL1        0.2525
@<TRIPOS>BOND
     1    21    22    1
     2    22    20    1
     3    20     8    1
     4     8     7    1
     5     7     1    1
     6     1     2    1
     7     2     3    1
     8     3     4    1
     9     4    23    1
    10    23    24    1
    11    24    25    1
    12    25    26   ar
    13    26    27   ar
    14    27    28   ar
    15    28    31    1
    16    31    32    3
    17    28    29   ar
    18    29    33    1
    19    33    34    1
    20    29    30   ar
    21     4     5    1
    22     5     6    1
    23     8     9    1
    24     9    10   ar
    25    10    11   ar
    26    11    12   ar
    27    12    13   ar
    28    13    14   ar
    29    14    15    1
    30    13    16    1
    31    16    17    1
    32    17    18    1
    33    18    19    2
    34     6     1    1
    35    14     9   ar
    36    30    25   ar
    37    18    12    1
@<TRIPOS>MOLECULE
*****
 34 37 0 0 0
SMALL
GASTEIGER

@<TRIPOS>ATOM
      1 N         138.0555  141.5079  163.8388 N.3     1  UNL1       -0.2680
      2 C         138.3073  141.6494  162.3669 C.3     1  UNL1        0.0897
      3 C         138.5086  143.0097  161.7679 C.3     1  UNL1        0.0897
      4 N         138.4581  144.2286  162.6407 N.3     1  UNL1       -0.2700
      5 C         138.2063  144.0871  164.1127 C.3     1  UNL1        0.0897
      6 C         138.0050  142.7267  164.7118 C.3     1  UNL1        0.0897
      7 C         137.8542  140.1475  164.4379 C.3     1  UNL1        0.1067
      8 C         139.0176  139.4098  165.0314 C.3     1  UNL1        0.1530
      9 C         139.8337  140.0457  166.1177 C.ar    1  UNL1        0.0018
     10 C         139.4000  139.9272  167.5486 C.ar    1  UNL1       -0.0020
     11 C         140.2160  140.5630  168.6348 C.ar    1  UNL1        0.0060
     12 C         141.4658  141.3174  168.2900 C.ar    1  UNL1        0.0748
     13 C         141.8996  141.4359  166.8589 C.ar    1  UNL1        0.0233
     14 C         141.0835  140.8001  165.7728 C.ar    1  UNL1       -0.0238
     15 C         141.5173  140.9185  164.3417 C.3     1  UNL1        0.0306
     16 C         143.1679  142.2359  166.8237 C.3     1  UNL1        0.2352
     17 O         143.5181  142.6117  168.2330 O.3     1  UNL1       -0.4404
     18 C         142.4661  142.0441  169.1392 C.2     1  UNL1        0.3413
     19 O         142.4222  142.1794  170.6324 O.2     1  UNL1       -0.2449
     20 O         139.3649  138.0362  164.5388 O.3     1  UNL1       -0.3504
     21 C         139.9783  137.9978  162.0145 C.3     1  UNL1        0.0347
     22 C         139.0399  137.6406  163.1289 C.3     1  UNL1        0.1426
     23 C         138.6594  145.5889  162.0417 C.3     1  UNL1        0.0769
     24 C         140.0473  146.1107  161.8147 C.3     1  UNL1        0.0438
     25 C         141.2329  145.2377  162.1011 C.ar    1  UNL1       -0.0177
     26 C         141.8382  145.2214  163.4735 C.ar    1  UNL1       -0.0033
     27 C         143.0238  144.3484  163.7600 C.ar    1  UNL1        0.0130
     28 C         143.6042  143.4916  162.6741 C.ar    1  UNL1        0.1023
     29 C         142.9989  143.5079  161.3017 C.ar    1  UNL1        0.1479
     30 C         141.8133  144.3809  161.0152 C.ar    1  UNL1        0.0334
     31 C         144.7899  142.6185  162.9605 C.1     1  UNL1        0.1035
     32 N         145.9754  141.7454  163.2469 N.1     1  UNL1       -0.1907
     33 O         143.5792  142.6511  160.2158 O.3     1  UNL1       -0.4708
     34 C         142.8860  142.5494  158.8895 C.3     1  UNL1        0.2525
@<TRIPOS>BOND
     1    21    22    1
     2    22    20    1
     3    20     8    1
     4     8     7    1
     5     7     1    1
     6     1     2    1
     7     2     3    1
     8     3     4    1
     9     4    23    1
    10    23    24    1
    11    24    25    1
    12    25    26   ar
    13    26    27   ar
    14    27    28   ar
    15    28    31    1
    16    31    32    3
    17    28    29   ar
    18    29    33    1
    19    33    34    1
    20    29    30   ar
    21     4     5    1
    22     5     6    1
    23     8     9    1
    24     9    10   ar
    25    10    11   ar
    26    11    12   ar
    27    12    13   ar
    28    13    14   ar
    29    14    15    1
    30    13    16    1
    31    16    17    1
    32    17    18    1
    33    18    19    2
    34     6     1    1
    35    14     9   ar
    36    30    25   ar
    37    18    12    1
@<TRIPOS>MOLECULE
*****
 34 37 0 0 0
SMALL
GASTEIGER

@<TRIPOS>ATOM
      1 N         142.8130  140.3868  166.4126 N.3     1  UNL1       -0.2680
      2 C         143.3219  141.7797  166.1866 C.3     1  UNL1        0.0897
      3 C         144.1083  142.0992  164.9499 C.3     1  UNL1        0.0897
      4 N         144.3859  141.0261  163.9393 N.3     1  UNL1       -0.2700
      5 C         143.8769  139.6333  164.1653 C.3     1  UNL1        0.0897
      6 C         143.0905  139.3136  165.4020 C.3     1  UNL1        0.0897
      7 C         142.0266  140.0672  167.6492 C.3     1  UNL1        0.1067
      8 C         140.5418  140.2796  167.6696 C.3     1  UNL1        0.1530
      9 C         139.8805  141.0585  166.5714 C.ar    1  UNL1        0.0018
     10 C         140.0122  142.5520  166.5269 C.ar    1  UNL1       -0.0020
     11 C         139.3509  143.3309  165.4287 C.ar    1  UNL1        0.0060
     12 C         138.5578  142.6162  164.3750 C.ar    1  UNL1        0.0748
     13 C         138.4260  141.1227  164.4195 C.ar    1  UNL1        0.0233
     14 C         139.0873  140.3438  165.5177 C.ar    1  UNL1       -0.0238
     15 C         138.9556  138.8502  165.5622 C.3     1  UNL1        0.0306
     16 C         137.5867  140.6964  163.2517 C.3     1  UNL1        0.2352
     17 O         137.1997  141.9265  162.4855 O.3     1  UNL1       -0.4404
     18 C         137.7999  143.1130  163.1797 C.2     1  UNL1        0.3413
     19 O         137.6657  144.5449  162.7535 O.2     1  UNL1       -0.2449
     20 O         139.7184  139.7132  168.7882 O.3     1  UNL1       -0.3504
     21 C         139.7950  141.8811  170.2180 C.3     1  UNL1        0.0347
     22 C         139.0851  140.6303  169.7921 C.3     1  UNL1        0.1426
     23 C         145.1723  141.3457  162.7027 C.3     1  UNL1        0.0769
     24 C         144.5022  142.0156  161.5398 C.3     1  UNL1        0.0438
     25 C         143.1220  141.5977  161.1270 C.ar    1  UNL1       -0.0177
     26 C         141.9612  142.5219  161.3473 C.ar    1  UNL1       -0.0033
     27 C         140.5810  142.1041  160.9346 C.ar    1  UNL1        0.0130
     28 C         140.3615  140.7621  160.3015 C.ar    1  UNL1        0.1023
     29 C         141.5222  139.8379  160.0813 C.ar    1  UNL1        0.1479
     30 C         142.9025  140.2557  160.4940 C.ar    1  UNL1        0.0334
     31 C         138.9813  140.3442  159.8888 C.1     1  UNL1        0.1035
     32 N         137.6010  139.9263  159.4761 N.1     1  UNL1       -0.1907
     33 O         141.3027  138.4958  159.4482 O.3     1  UNL1       -0.4708
     34 C         141.5601  138.3068  157.9826 C.3     1  UNL1        0.2525
@<TRIPOS>BOND
     1    21    22    1
     2    22    20    1
     3    20     8    1
     4     8     7    1
     5     7     1    1
     6     1     2    1
     7     2     3    1
     8     3     4    1
     9     4    23    1
    10    23    24    1
    11    24    25    1
    12    25    26   ar
    13    26    27   ar
    14    27    28   ar
    15    28    31    1
    16    31    32    3
    17    28    29   ar
    18    29    33    1
    19    33    34    1
    20    29    30   ar
    21     4     5    1
    22     5     6    1
    23     8     9    1
    24     9    10   ar
    25    10    11   ar
    26    11    12   ar
    27    12    13   ar
    28    13    14   ar
    29    14    15    1
    30    13    16    1
    31    16    17    1
    32    17    18    1
    33    18    19    2
    34     6     1    1
    35    14     9   ar
    36    30    25   ar
    37    18    12    1
@<TRIPOS>MOLECULE
*****
 34 37 0 0 0
SMALL
GASTEIGER

@<TRIPOS>ATOM
      1 N         139.3991  139.1436  163.2260 N.3     1  UNL1       -0.2680
      2 C         139.7054  139.7982  161.9116 C.3     1  UNL1        0.0897
      3 C         140.8783  139.3358  161.0989 C.3     1  UNL1        0.0897
      4 N         141.7448  138.2189  161.6005 N.3     1  UNL1       -0.2700
      5 C         141.4385  137.5643  162.9150 C.3     1  UNL1        0.0897
      6 C         140.2656  138.0266  163.7277 C.3     1  UNL1        0.0897
      7 C         138.2262  139.6059  164.0388 C.3     1  UNL1        0.1067
      8 C         138.2822  140.9230  164.7544 C.3     1  UNL1        0.1530
      9 C         139.3552  141.1794  165.7708 C.ar    1  UNL1        0.0018
     10 C         140.3599  142.2693  165.5421 C.ar    1  UNL1       -0.0020
     11 C         141.4329  142.5257  166.5584 C.ar    1  UNL1        0.0060
     12 C         141.5011  141.6920  167.8035 C.ar    1  UNL1        0.0748
     13 C         140.4964  140.6020  168.0323 C.ar    1  UNL1        0.0233
     14 C         139.4234  140.3456  167.0160 C.ar    1  UNL1       -0.0238
     15 C         138.4186  139.2556  167.2447 C.3     1  UNL1        0.0306
     16 C         140.8125  139.9481  169.3447 C.3     1  UNL1        0.2352
     17 O         142.0126  140.6341  169.9271 O.3     1  UNL1       -0.4404
     18 C         142.4382  141.7119  168.9746 C.2     1  UNL1        0.3413
     19 O         143.5974  142.6455  169.1605 O.2     1  UNL1       -0.2449
     20 O         137.2651  141.9838  164.4537 O.3     1  UNL1       -0.3504
     21 C         137.7751  144.3175  163.4321 C.3     1  UNL1        0.0347
     22 C         137.4354  142.8674  163.2536 C.3     1  UNL1        0.1426
     23 C         142.9177  137.7565  160.7878 C.3     1  UNL1        0.0769
     24 C         144.2473  138.4348  160.9363 C.3     1  UNL1        0.0438
     25 C         144.4109  139.5580  161.9170 C.ar    1  UNL1       -0.0177
     26 C         144.7286  139.2600  163.3524 C.ar    1  UNL1       -0.0033
     27 C         144.8922  140.3830  164.3331 C.ar    1  UNL1        0.0130
     28 C         144.7381  141.8041  163.8785 C.ar    1  UNL1        0.1023
     29 C         144.4204  142.1022  162.4431 C.ar    1  UNL1        0.1479
     30 C         144.2568  140.9791  161.4624 C.ar    1  UNL1        0.0334
     31 C         144.9017  142.9274  164.8592 C.1     1  UNL1        0.1035
     32 N         145.0654  144.0505  165.8398 N.1     1  UNL1       -0.1907
     33 O         144.2663  143.5233  161.9885 O.3     1  UNL1       -0.4708
     34 C         142.9156  144.1753  162.0098 C.3     1  UNL1        0.2525
@<TRIPOS>BOND
     1    21    22    1
     2    22    20    1
     3    20     8    1
     4     8     7    1
     5     7     1    1
     6     1     2    1
     7     2     3    1
     8     3     4    1
     9     4    23    1
    10    23    24    1
    11    24    25    1
    12    25    26   ar
    13    26    27   ar
    14    27    28   ar
    15    28    31    1
    16    31    32    3
    17    28    29   ar
    18    29    33    1
    19    33    34    1
    20    29    30   ar
    21     4     5    1
    22     5     6    1
    23     8     9    1
    24     9    10   ar
    25    10    11   ar
    26    11    12   ar
    27    12    13   ar
    28    13    14   ar
    29    14    15    1
    30    13    16    1
    31    16    17    1
    32    17    18    1
    33    18    19    2
    34     6     1    1
    35    14     9   ar
    36    30    25   ar
    37    18    12    1
@<TRIPOS>MOLECULE
*****
 34 37 0 0 0
SMALL
GASTEIGER

@<TRIPOS>ATOM
      1 N         141.3386  138.1324  164.5707 N.3     1  UNL1       -0.2680
      2 C         139.9690  138.4787  165.0749 C.3     1  UNL1        0.0897
      3 C         138.8009  138.4770  164.1340 C.3     1  UNL1        0.0897
      4 N         139.0023  138.1289  162.6889 N.3     1  UNL1       -0.2700
      5 C         140.3719  137.7826  162.1847 C.3     1  UNL1        0.0897
      6 C         141.5401  137.7843  163.1255 C.3     1  UNL1        0.0897
      7 C         142.5069  138.1341  165.5115 C.3     1  UNL1        0.1067
      8 C         143.0720  139.4337  166.0031 C.3     1  UNL1        0.1530
      9 C         142.4797  140.1008  167.2092 C.ar    1  UNL1        0.0018
     10 C         142.6932  139.5124  168.5722 C.ar    1  UNL1       -0.0020
     11 C         142.1009  140.1794  169.7782 C.ar    1  UNL1        0.0060
     12 C         141.2952  141.4348  169.6210 C.ar    1  UNL1        0.0748
     13 C         141.0817  142.0232  168.2579 C.ar    1  UNL1        0.0233
     14 C         141.6740  141.3563  167.0519 C.ar    1  UNL1       -0.0238
     15 C         141.4605  141.9446  165.6887 C.3     1  UNL1        0.0306
     16 C         140.2482  143.2607  168.4125 C.3     1  UNL1        0.2352
     17 O         139.9465  143.4370  169.8712 O.3     1  UNL1       -0.4404
     18 C         140.5936  142.3086  170.6181 C.2     1  UNL1        0.3413
     19 O         140.5472  142.0920  172.1017 O.2     1  UNL1       -0.2449
     20 O         144.2294  140.0663  165.2888 O.3     1  UNL1       -0.3504
     21 C         145.2272  141.1279  163.1376 C.3     1  UNL1        0.0347
     22 C         144.1352  140.3591  163.8206 C.3     1  UNL1        0.1426
     23 C         137.8341  138.1272  161.7480 C.3     1  UNL1        0.0769
     24 C         137.3850  139.4071  161.1074 C.3     1  UNL1        0.0438
     25 C         138.1223  140.6836  161.3846 C.ar    1  UNL1       -0.0177
     26 C         139.4648  140.9248  160.7606 C.ar    1  UNL1       -0.0033
     27 C         140.2022  142.2013  161.0377 C.ar    1  UNL1        0.0130
     28 C         139.5971  143.2365  161.9389 C.ar    1  UNL1        0.1023
     29 C         138.2546  142.9952  162.5630 C.ar    1  UNL1        0.1479
     30 C         137.5172  141.7188  162.2859 C.ar    1  UNL1        0.0334
     31 C         140.3345  144.5131  162.2162 C.1     1  UNL1        0.1035
     32 N         141.0718  145.7895  162.4935 N.1     1  UNL1       -0.1907
     33 O         137.6495  144.0304  163.4642 O.3     1  UNL1       -0.4708
     34 C         138.0703  144.1118  164.9017 C.3     1  UNL1        0.2525
@<TRIPOS>BOND
     1    21    22    1
     2    22    20    1
     3    20     8    1
     4     8     7    1
     5     7     1    1
     6     1     2    1
     7     2     3    1
     8     3     4    1
     9     4    23    1
    10    23    24    1
    11    24    25    1
    12    25    26   ar
    13    26    27   ar
    14    27    28   ar
    15    28    31    1
    16    31    32    3
    17    28    29   ar
    18    29    33    1
    19    33    34    1
    20    29    30   ar
    21     4     5    1
    22     5     6    1
    23     8     9    1
    24     9    10   ar
    25    10    11   ar
    26    11    12   ar
    27    12    13   ar
    28    13    14   ar
    29    14    15    1
    30    13    16    1
    31    16    17    1
    32    17    18    1
    33    18    19    2
    34     6     1    1
    35    14     9   ar
    36    30    25   ar
    37    18    12    1
@<TRIPOS>MOLECULE
*****
 34 37 0 0 0
SMALL
GASTEIGER

@<TRIPOS>ATOM
      1 N         140.4972  139.8455  166.3624 N.3     1  UNL1       -0.2680
      2 C         139.0085  139.7506  166.2054 C.3     1  UNL1        0.0897
      3 C         138.4231  139.0433  165.0193 C.3     1  UNL1        0.0897
      4 N         139.3263  138.4309  163.9901 N.3     1  UNL1       -0.2700
      5 C         140.8151  138.5258  164.1471 C.3     1  UNL1        0.0897
      6 C         141.4006  139.2331  165.3333 C.3     1  UNL1        0.0897
      7 C         141.0827  140.5528  167.5485 C.3     1  UNL1        0.1067
      8 C         141.5086  141.9863  167.4319 C.3     1  UNL1        0.1530
      9 C         141.1312  142.7846  166.2192 C.ar    1  UNL1        0.0018
     10 C         139.7670  143.4002  166.1213 C.ar    1  UNL1       -0.0020
     11 C         139.3896  144.1984  164.9087 C.ar    1  UNL1        0.0060
     12 C         140.3766  144.3810  163.7940 C.ar    1  UNL1        0.0748
     13 C         141.7409  143.7654  163.8920 C.ar    1  UNL1        0.0233
     14 C         142.1183  142.9672  165.1046 C.ar    1  UNL1       -0.0238
     15 C         143.4826  142.3515  165.2026 C.3     1  UNL1        0.0306
     16 C         142.4973  144.1137  162.6444 C.3     1  UNL1        0.2352
     17 O         141.6004  144.9446  161.7754 O.3     1  UNL1       -0.4404
     18 C         140.2897  145.1098  162.4859 C.2     1  UNL1        0.3413
     19 O         139.1010  145.8703  161.9775 O.2     1  UNL1       -0.2449
     20 O         142.3118  142.6216  168.5279 O.3     1  UNL1       -0.3504
     21 C         140.4433  143.8739  169.8283 C.3     1  UNL1        0.0347
     22 C         141.6532  142.9872  169.8251 C.3     1  UNL1        0.1426
     23 C         138.7408  137.7236  162.8040 C.3     1  UNL1        0.0769
     24 C         137.8173  138.4548  161.8753 C.3     1  UNL1        0.0438
     25 C         138.2682  139.7235  161.2143 C.ar    1  UNL1       -0.0177
     26 C         137.8462  141.0506  161.7718 C.ar    1  UNL1       -0.0033
     27 C         138.2971  142.3194  161.1108 C.ar    1  UNL1        0.0130
     28 C         139.1701  142.2610  159.8924 C.ar    1  UNL1        0.1023
     29 C         139.5921  140.9340  159.3350 C.ar    1  UNL1        0.1479
     30 C         139.1412  139.6652  159.9959 C.ar    1  UNL1        0.0334
     31 C         139.6211  143.5298  159.2314 C.1     1  UNL1        0.1035
     32 N         140.0720  144.7985  158.5703 N.1     1  UNL1       -0.1907
     33 O         140.4651  140.8756  158.1166 O.3     1  UNL1       -0.4708
     34 C         141.8919  140.4288  158.2369 C.3     1  UNL1        0.2525
@<TRIPOS>BOND
     1    21    22    1
     2    22    20    1
     3    20     8    1
     4     8     7    1
     5     7     1    1
     6     1     2    1
     7     2     3    1
     8     3     4    1
     9     4    23    1
    10    23    24    1
    11    24    25    1
    12    25    26   ar
    13    26    27   ar
    14    27    28   ar
    15    28    31    1
    16    31    32    3
    17    28    29   ar
    18    29    33    1
    19    33    34    1
    20    29    30   ar
    21     4     5    1
    22     5     6    1
    23     8     9    1
    24     9    10   ar
    25    10    11   ar
    26    11    12   ar
    27    12    13   ar
    28    13    14   ar
    29    14    15    1
    30    13    16    1
    31    16    17    1
    32    17    18    1
    33    18    19    2
    34     6     1    1
    35    14     9   ar
    36    30    25   ar
    37    18    12    1
@<TRIPOS>MOLECULE
*****
 34 37 0 0 0
SMALL
GASTEIGER

@<TRIPOS>ATOM
      1 N         138.9034  143.0833  162.2737 N.3     1  UNL1       -0.2680
      2 C         138.6515  143.4311  163.7109 C.3     1  UNL1        0.0897
      3 C         138.4117  142.3428  164.7150 C.3     1  UNL1        0.0897
      4 N         138.4240  140.9067  164.2818 N.3     1  UNL1       -0.2700
      5 C         138.6760  140.5589  162.8446 C.3     1  UNL1        0.0897
      6 C         138.9157  141.6472  161.8405 C.3     1  UNL1        0.0897
      7 C         139.1432  144.1715  161.2696 C.3     1  UNL1        0.1067
      8 C         140.5259  144.7184  161.0722 C.3     1  UNL1        0.1530
      9 C         141.5879  144.4617  162.1000 C.ar    1  UNL1        0.0018
     10 C         141.7419  145.3908  163.2675 C.ar    1  UNL1       -0.0020
     11 C         142.8038  145.1341  164.2953 C.ar    1  UNL1        0.0060
     12 C         143.7118  143.9483  164.1556 C.ar    1  UNL1        0.0748
     13 C         143.5578  143.0192  162.9881 C.ar    1  UNL1        0.0233
     14 C         142.4959  143.2759  161.9603 C.ar    1  UNL1       -0.0238
     15 C         142.3419  142.3468  160.7927 C.3     1  UNL1        0.0306
     16 C         144.5919  141.9401  163.1149 C.3     1  UNL1        0.2352
     17 O         145.3849  142.2022  164.3608 O.3     1  UNL1       -0.4404
     18 C         144.8410  143.4434  165.0040 C.2     1  UNL1        0.3413
     19 O         145.3389  144.0696  166.2728 O.2     1  UNL1       -0.2449
     20 O         140.8467  145.5220  159.8469 O.3     1  UNL1       -0.3504
     21 C         140.3052  145.6851  157.3111 C.3     1  UNL1        0.0347
     22 C         140.7712  144.8848  158.4910 C.3     1  UNL1        0.1426
     23 C         138.1842  139.8185  165.2859 C.3     1  UNL1        0.0769
     24 C         139.3465  139.1067  165.9125 C.3     1  UNL1        0.0438
     25 C         140.3650  139.8796  166.6968 C.ar    1  UNL1       -0.0177
     26 C         141.6896  140.2165  166.0788 C.ar    1  UNL1       -0.0033
     27 C         142.7082  140.9895  166.8630 C.ar    1  UNL1        0.0130
     28 C         142.4022  141.4255  168.2652 C.ar    1  UNL1        0.1023
     29 C         141.0776  141.0885  168.8833 C.ar    1  UNL1        0.1479
     30 C         140.0590  140.3156  168.0990 C.ar    1  UNL1        0.0334
     31 C         143.4208  142.1984  169.0496 C.1     1  UNL1        0.1035
     32 N         144.4393  142.9713  169.8340 N.1     1  UNL1       -0.1907
     33 O         140.7716  141.5245  170.2855 O.3     1  UNL1       -0.4708
     34 C         139.9078  142.7271  170.5254 C.3     1  UNL1        0.2525
@<TRIPOS>BOND
     1    21    22    1
     2    22    20    1
     3    20     8    1
     4     8     7    1
     5     7     1    1
     6     1     2    1
     7     2     3    1
     8     3     4    1
     9     4    23    1
    10    23    24    1
    11    24    25    1
    12    25    26   ar
    13    26    27   ar
    14    27    28   ar
    15    28    31    1
    16    31    32    3
    17    28    29   ar
    18    29    33    1
    19    33    34    1
    20    29    30   ar
    21     4     5    1
    22     5     6    1
    23     8     9    1
    24     9    10   ar
    25    10    11   ar
    26    11    12   ar
    27    12    13   ar
    28    13    14   ar
    29    14    15    1
    30    13    16    1
    31    16    17    1
    32    17    18    1
    33    18    19    2
    34     6     1    1
    35    14     9   ar
    36    30    25   ar
    37    18    12    1
