@<TRIPOS>MOLECULE
*****
 24 27 0 0 0
SMALL
GASTEIGER

@<TRIPOS>ATOM
      1 N         141.4253  141.6980  164.0207 N.ar    1  UNL1       -0.3087
      2 C         141.0191  140.8378  162.8609 C.ar    1  UNL1        0.1493
      3 N         139.6372  141.2451  162.4434 N.ar    1  UNL1       -0.2284
      4 C         139.1893  142.3571  163.3451 C.ar    1  UNL1        0.0984
      5 C         137.9179  143.1508  163.4045 C.ar    1  UNL1        0.0206
      6 C         137.7517  144.2245  164.4387 C.ar    1  UNL1        0.0016
      7 C         138.8569  144.5044  165.4135 C.ar    1  UNL1        0.0016
      8 C         140.1283  143.7106  165.3541 C.ar    1  UNL1        0.0188
      9 C         140.2945  142.6370  164.3199 C.ar    1  UNL1        0.0789
     10 C         141.8491  139.7597  162.2296 C.3     1  UNL1        0.1869
     11 C         141.3931  138.3318  162.2865 C.3     1  UNL1        0.1064
     12 N         142.2231  137.2536  161.6552 N.3     1  UNL1       -0.2930
     13 C         143.5091  137.6033  160.9668 C.3     1  UNL1        0.1011
     14 C         143.9651  139.0311  160.9098 C.3     1  UNL1        0.1597
     15 O         143.1351  140.1093  161.5412 O.3     1  UNL1       -0.3458
     16 H         141.6325  136.7959  160.9609 H       1  UNL1        0.1234
     17 C         142.7329  141.6311  164.7527 C.3     1  UNL1        0.1340
     18 C         142.8495  140.0965  170.5519 C.3     1  UNL1        0.0310
     19 C         142.8204  140.4802  169.1021 C.ar    1  UNL1       -0.0219
     20 C         142.5726  139.4354  168.0547 C.ar    1  UNL1       -0.0045
     21 C         142.5434  139.8191  166.6049 C.ar    1  UNL1       -0.0027
     22 C         142.7620  141.2475  166.2025 C.ar    1  UNL1        0.0004
     23 C         143.0098  142.2922  167.2499 C.ar    1  UNL1       -0.0027
     24 C         143.0389  141.9086  168.6997 C.ar    1  UNL1       -0.0045
@<TRIPOS>BOND
     1    18    19    1
     2    19    20   ar
     3    20    21   ar
     4    21    22   ar
     5    22    17    1
     6    17     1    1
     7     1     2   ar
     8    10     2    1
     9    10    11    1
    10    11    12    1
    11    12    13    1
    12    13    14    1
    13    14    15    1
    14     2     3   ar
    15     3     4   ar
    16     4     5   ar
    17     5     6   ar
    18     6     7   ar
    19     7     8   ar
    20     8     9   ar
    21    22    23   ar
    22    23    24   ar
    23    24    19   ar
    24     9     1   ar
    25    15    10    1
    26     9     4   ar
    27    12    16    1
@<TRIPOS>MOLECULE
*****
 24 27 0 0 0
SMALL
GASTEIGER

@<TRIPOS>ATOM
      1 N         140.4428  139.9308  166.8726 N.ar    1  UNL1       -0.3087
      2 C         141.6354  139.2355  166.2857 C.ar    1  UNL1        0.1493
      3 N         142.6886  139.1441  167.3498 N.ar    1  UNL1       -0.2284
      4 C         142.1470  139.7829  168.5943 C.ar    1  UNL1        0.0984
      5 C         142.7384  139.9846  169.9579 C.ar    1  UNL1        0.0206
      6 C         141.9418  140.6726  171.0266 C.ar    1  UNL1        0.0016
      7 C         140.5537  141.1588  170.7316 C.ar    1  UNL1        0.0016
      8 C         139.9624  140.9571  169.3680 C.ar    1  UNL1        0.0188
      9 C         140.7590  140.2691  168.2993 C.ar    1  UNL1        0.0789
     10 C         141.7539  138.7219  164.8814 C.3     1  UNL1        0.1869
     11 C         141.1231  137.4139  164.5055 C.3     1  UNL1        0.1064
     12 N         141.2416  136.9002  163.1012 N.3     1  UNL1       -0.2930
     13 C         141.9909  137.6945  162.0728 C.3     1  UNL1        0.1011
     14 C         142.6216  139.0025  162.4487 C.3     1  UNL1        0.1597
     15 O         142.5031  139.5162  163.8530 O.3     1  UNL1       -0.3458
     16 H         140.2915  136.7843  162.7489 H       1  UNL1        0.1234
     17 C         139.1593  140.2345  166.1581 C.3     1  UNL1        0.1340
     18 C         138.7168  145.1478  162.7429 C.3     1  UNL1        0.0310
     19 C         138.8274  143.9195  163.5967 C.ar    1  UNL1       -0.0219
     20 C         139.9286  143.8065  164.6090 C.ar    1  UNL1       -0.0045
     21 C         140.0392  142.5782  165.4628 C.ar    1  UNL1       -0.0027
     22 C         139.0487  141.4628  165.3043 C.ar    1  UNL1        0.0004
     23 C         137.9476  141.5759  164.2920 C.ar    1  UNL1       -0.0027
     24 C         137.8370  142.8042  163.4382 C.ar    1  UNL1       -0.0045
@<TRIPOS>BOND
     1    18    19    1
     2    19    20   ar
     3    20    21   ar
     4    21    22   ar
     5    22    17    1
     6    17     1    1
     7     1     2   ar
     8    10     2    1
     9    10    11    1
    10    11    12    1
    11    12    13    1
    12    13    14    1
    13    14    15    1
    14     2     3   ar
    15     3     4   ar
    16     4     5   ar
    17     5     6   ar
    18     6     7   ar
    19     7     8   ar
    20     8     9   ar
    21    22    23   ar
    22    23    24   ar
    23    24    19   ar
    24     9     1   ar
    25    15    10    1
    26     9     4   ar
    27    12    16    1
@<TRIPOS>MOLECULE
*****
 24 27 0 0 0
SMALL
GASTEIGER

@<TRIPOS>ATOM
      1 N         140.6792  141.3949  166.5405 N.ar    1  UNL1       -0.3087
      2 C         141.6736  140.3377  166.1615 C.ar    1  UNL1        0.1493
      3 N         142.7406  140.3060  167.2152 N.ar    1  UNL1       -0.2284
      4 C         142.4058  141.3435  168.2455 C.ar    1  UNL1        0.0984
      5 C         143.0963  141.7624  169.5094 C.ar    1  UNL1        0.0206
      6 C         142.5128  142.8543  170.3563 C.ar    1  UNL1        0.0016
      7 C         141.2388  143.5273  169.9393 C.ar    1  UNL1        0.0016
      8 C         140.5482  143.1084  168.6754 C.ar    1  UNL1        0.0188
      9 C         141.1317  142.0165  167.8285 C.ar    1  UNL1        0.0789
     10 C         141.6117  139.4654  164.9428 C.3     1  UNL1        0.1869
     11 C         141.9773  140.0256  163.6002 C.3     1  UNL1        0.1064
     12 N         141.9154  139.1534  162.3815 N.3     1  UNL1       -0.2930
     13 C         141.4881  137.7209  162.5053 C.3     1  UNL1        0.1011
     14 C         141.1226  137.1607  163.8478 C.3     1  UNL1        0.1597
     15 O         141.1844  138.0330  165.0666 O.3     1  UNL1       -0.3458
     16 H         142.8513  139.1474  161.9758 H       1  UNL1        0.1234
     17 C         139.4484  141.7654  165.7673 C.3     1  UNL1        0.1340
     18 C         139.6210  146.3038  161.8466 C.3     1  UNL1        0.0310
     19 C         139.5779  145.1692  162.8268 C.ar    1  UNL1       -0.0219
     20 C         138.2893  144.4436  163.0778 C.ar    1  UNL1       -0.0045
     21 C         138.2462  143.3090  164.0580 C.ar    1  UNL1       -0.0027
     22 C         139.4916  142.8999  164.7872 C.ar    1  UNL1        0.0004
     23 C         140.7802  143.6256  164.5361 C.ar    1  UNL1       -0.0027
     24 C         140.8233  144.7602  163.5559 C.ar    1  UNL1       -0.0045
@<TRIPOS>BOND
     1    18    19    1
     2    19    20   ar
     3    20    21   ar
     4    21    22   ar
     5    22    17    1
     6    17     1    1
     7     1     2   ar
     8    10     2    1
     9    10    11    1
    10    11    12    1
    11    12    13    1
    12    13    14    1
    13    14    15    1
    14     2     3   ar
    15     3     4   ar
    16     4     5   ar
    17     5     6   ar
    18     6     7   ar
    19     7     8   ar
    20     8     9   ar
    21    22    23   ar
    22    23    24   ar
    23    24    19   ar
    24     9     1   ar
    25    15    10    1
    26     9     4   ar
    27    12    16    1
@<TRIPOS>MOLECULE
*****
 24 27 0 0 0
SMALL
GASTEIGER

@<TRIPOS>ATOM
      1 N         142.9855  140.1737  166.3776 N.ar    1  UNL1       -0.3087
      2 C         143.4603  141.4433  165.7353 C.ar    1  UNL1        0.1493
      3 N         143.4422  142.5239  166.7755 N.ar    1  UNL1       -0.2284
      4 C         142.9563  141.9221  168.0607 C.ar    1  UNL1        0.0984
      5 C         142.7343  142.5091  169.4231 C.ar    1  UNL1        0.0206
      6 C         142.2301  141.6436  170.5395 C.ar    1  UNL1        0.0016
      7 C         141.9479  140.1910  170.2936 C.ar    1  UNL1        0.0016
      8 C         142.1698  139.6040  168.9313 C.ar    1  UNL1        0.0188
      9 C         142.6740  140.4696  167.8148 C.ar    1  UNL1        0.0789
     10 C         143.8796  141.6041  164.3041 C.3     1  UNL1        0.1869
     11 C         145.3270  141.8030  163.9644 C.3     1  UNL1        0.1064
     12 N         145.7462  141.9638  162.5332 N.3     1  UNL1       -0.2930
     13 C         144.7181  141.9258  161.4417 C.3     1  UNL1        0.1011
     14 C         143.2707  141.7269  161.7814 C.3     1  UNL1        0.1597
     15 O         142.8514  141.5661  163.2126 O.3     1  UNL1       -0.3458
     16 H         146.4128  141.2174  162.3359 H       1  UNL1        0.1234
     17 C         142.8466  138.8419  165.7015 C.3     1  UNL1        0.1340
     18 C         138.1929  137.7960  162.0616 C.3     1  UNL1        0.0310
     19 C         139.3564  138.0575  162.9716 C.ar    1  UNL1       -0.0219
     20 C         139.1204  138.5591  164.3654 C.ar    1  UNL1       -0.0045
     21 C         140.2838  138.8206  165.2754 C.ar    1  UNL1       -0.0027
     22 C         141.6833  138.5804  164.7916 C.ar    1  UNL1        0.0004
     23 C         141.9192  138.0788  163.3977 C.ar    1  UNL1       -0.0027
     24 C         140.7557  137.8174  162.4878 C.ar    1  UNL1       -0.0045
@<TRIPOS>BOND
     1    18    19    1
     2    19    20   ar
     3    20    21   ar
     4    21    22   ar
     5    22    17    1
     6    17     1    1
     7     1     2   ar
     8    10     2    1
     9    10    11    1
    10    11    12    1
    11    12    13    1
    12    13    14    1
    13    14    15    1
    14     2     3   ar
    15     3     4   ar
    16     4     5   ar
    17     5     6   ar
    18     6     7   ar
    19     7     8   ar
    20     8     9   ar
    21    22    23   ar
    22    23    24   ar
    23    24    19   ar
    24     9     1   ar
    25    15    10    1
    26     9     4   ar
    27    12    16    1
@<TRIPOS>MOLECULE
*****
 24 27 0 0 0
SMALL
GASTEIGER

@<TRIPOS>ATOM
      1 N         141.7872  141.0789  164.2260 N.ar    1  UNL1       -0.3087
      2 C         140.8313  141.3088  163.0931 C.ar    1  UNL1        0.1493
      3 N         141.0834  142.6823  162.5454 N.ar    1  UNL1       -0.2284
      4 C         142.1951  143.3013  163.3397 C.ar    1  UNL1        0.0984
      5 C         142.8675  144.6392  163.2514 C.ar    1  UNL1        0.0206
      6 C         143.9749  144.9861  164.2017 C.ar    1  UNL1        0.0016
      7 C         144.4100  143.9952  165.2404 C.ar    1  UNL1        0.0016
      8 C         143.7376  142.6573  165.3287 C.ar    1  UNL1        0.0188
      9 C         142.6301  142.3103  164.3784 C.ar    1  UNL1        0.0789
     10 C         139.8037  140.3360  162.5954 C.3     1  UNL1        0.1869
     11 C         138.3676  140.7543  162.4826 C.3     1  UNL1        0.1064
     12 N         137.3400  139.7815  161.9849 N.3     1  UNL1       -0.2930
     13 C         137.7484  138.3905  161.6000 C.3     1  UNL1        0.1011
     14 C         139.1845  137.9722  161.7128 C.3     1  UNL1        0.1597
     15 O         140.2121  138.9450  162.2106 O.3     1  UNL1       -0.3458
     16 H         136.9121  140.2016  161.1598 H       1  UNL1        0.1234
     17 C         141.8834  139.8359  165.0600 C.3     1  UNL1        0.1340
     18 C         140.2413  139.9596  170.8296 C.3     1  UNL1        0.0310
     19 C         140.6518  139.9286  169.3872 C.ar    1  UNL1       -0.0219
     20 C         139.6250  140.1215  168.3108 C.ar    1  UNL1       -0.0045
     21 C         140.0356  140.0906  166.8685 C.ar    1  UNL1       -0.0027
     22 C         141.4729  139.8668  166.5023 C.ar    1  UNL1        0.0004
     23 C         142.4997  139.6739  167.5787 C.ar    1  UNL1       -0.0027
     24 C         142.0891  139.7048  169.0211 C.ar    1  UNL1       -0.0045
@<TRIPOS>BOND
     1    18    19    1
     2    19    20   ar
     3    20    21   ar
     4    21    22   ar
     5    22    17    1
     6    17     1    1
     7     1     2   ar
     8    10     2    1
     9    10    11    1
    10    11    12    1
    11    12    13    1
    12    13    14    1
    13    14    15    1
    14     2     3   ar
    15     3     4   ar
    16     4     5   ar
    17     5     6   ar
    18     6     7   ar
    19     7     8   ar
    20     8     9   ar
    21    22    23   ar
    22    23    24   ar
    23    24    19   ar
    24     9     1   ar
    25    15    10    1
    26     9     4   ar
    27    12    16    1
@<TRIPOS>MOLECULE
*****
 24 27 0 0 0
SMALL
GASTEIGER

@<TRIPOS>ATOM
      1 N         143.0984  141.3232  166.6718 N.ar    1  UNL1       -0.3087
      2 C         142.9691  139.8954  166.2307 C.ar    1  UNL1        0.1493
      3 N         142.5527  139.0793  167.4183 N.ar    1  UNL1       -0.2284
      4 C         142.4246  140.0027  168.5934 C.ar    1  UNL1        0.0984
      5 C         142.0444  139.7599  170.0240 C.ar    1  UNL1        0.0206
      6 C         142.0015  140.9040  170.9931 C.ar    1  UNL1        0.0016
      7 C         142.3388  142.2908  170.5317 C.ar    1  UNL1        0.0016
      8 C         142.7189  142.5336  169.1012 C.ar    1  UNL1        0.0188
      9 C         142.7619  141.3896  168.1320 C.ar    1  UNL1        0.0789
     10 C         143.2134  139.3751  164.8452 C.3     1  UNL1        0.1869
     11 C         144.5342  139.6150  164.1759 C.3     1  UNL1        0.1064
     12 N         144.7785  139.0947  162.7905 N.3     1  UNL1       -0.2930
     13 C         143.7020  138.3343  162.0742 C.3     1  UNL1        0.1011
     14 C         142.3812  138.0944  162.7435 C.3     1  UNL1        0.1597
     15 O         142.1370  138.6147  164.1290 O.3     1  UNL1       -0.3458
     16 H         145.5880  138.4767  162.8465 H       1  UNL1        0.1234
     17 C         143.4946  142.4814  165.8048 C.3     1  UNL1        0.1340
     18 C         139.3261  145.4452  162.6681 C.3     1  UNL1        0.0310
     19 C         140.3683  144.7043  163.4523 C.ar    1  UNL1       -0.0219
     20 C         139.9589  143.6305  164.4164 C.ar    1  UNL1       -0.0045
     21 C         141.0010  142.8896  165.2005 C.ar    1  UNL1       -0.0027
     22 C         142.4526  143.2224  165.0207 C.ar    1  UNL1        0.0004
     23 C         142.8619  144.2962  164.0566 C.ar    1  UNL1       -0.0027
     24 C         141.8198  145.0371  163.2724 C.ar    1  UNL1       -0.0045
@<TRIPOS>BOND
     1    18    19    1
     2    19    20   ar
     3    20    21   ar
     4    21    22   ar
     5    22    17    1
     6    17     1    1
     7     1     2   ar
     8    10     2    1
     9    10    11    1
    10    11    12    1
    11    12    13    1
    12    13    14    1
    13    14    15    1
    14     2     3   ar
    15     3     4   ar
    16     4     5   ar
    17     5     6   ar
    18     6     7   ar
    19     7     8   ar
    20     8     9   ar
    21    22    23   ar
    22    23    24   ar
    23    24    19   ar
    24     9     1   ar
    25    15    10    1
    26     9     4   ar
    27    12    16    1
@<TRIPOS>MOLECULE
*****
 24 27 0 0 0
SMALL
GASTEIGER

@<TRIPOS>ATOM
      1 N         140.9921  139.8989  166.5007 N.ar    1  UNL1       -0.3087
      2 C         139.5749  139.5586  166.1461 C.ar    1  UNL1        0.1493
      3 N         138.7546  139.6251  167.4002 N.ar    1  UNL1       -0.2284
      4 C         139.6648  140.0065  168.5298 C.ar    1  UNL1        0.0984
      5 C         139.4131  140.2215  169.9928 C.ar    1  UNL1        0.0206
      6 C         140.5443  140.6058  170.8998 C.ar    1  UNL1        0.0016
      7 C         141.9271  140.7751  170.3439 C.ar    1  UNL1        0.0016
      8 C         142.1788  140.5600  168.8809 C.ar    1  UNL1        0.0188
      9 C         141.0477  140.1757  167.9739 C.ar    1  UNL1        0.0789
     10 C         139.0672  139.2126  164.7777 C.3     1  UNL1        0.1869
     11 C         139.2089  137.8131  164.2569 C.3     1  UNL1        0.1064
     12 N         138.7012  137.4671  162.8885 N.3     1  UNL1       -0.2930
     13 C         138.0516  138.5205  162.0410 C.3     1  UNL1        0.1011
     14 C         137.9099  139.9200  162.5619 C.3     1  UNL1        0.1597
     15 O         138.4176  140.2660  163.9302 O.3     1  UNL1       -0.3458
     16 H         138.0154  136.7217  163.0087 H       1  UNL1        0.1234
     17 C         142.1504  139.9530  165.5492 C.3     1  UNL1        0.1340
     18 C         143.9117  145.2129  163.2622 C.3     1  UNL1        0.0310
     19 C         143.4714  143.8979  163.8339 C.ar    1  UNL1       -0.0219
     20 C         144.0268  143.4266  165.1452 C.ar    1  UNL1       -0.0045
     21 C         143.5865  142.1116  165.7169 C.ar    1  UNL1       -0.0027
     22 C         142.5907  141.2679  164.9774 C.ar    1  UNL1        0.0004
     23 C         142.0353  141.7394  163.6662 C.ar    1  UNL1       -0.0027
     24 C         142.4756  143.0544  163.0945 C.ar    1  UNL1       -0.0045
@<TRIPOS>BOND
     1    18    19    1
     2    19    20   ar
     3    20    21   ar
     4    21    22   ar
     5    22    17    1
     6    17     1    1
     7     1     2   ar
     8    10     2    1
     9    10    11    1
    10    11    12    1
    11    12    13    1
    12    13    14    1
    13    14    15    1
    14     2     3   ar
    15     3     4   ar
    16     4     5   ar
    17     5     6   ar
    18     6     7   ar
    19     7     8   ar
    20     8     9   ar
    21    22    23   ar
    22    23    24   ar
    23    24    19   ar
    24     9     1   ar
    25    15    10    1
    26     9     4   ar
    27    12    16    1
@<TRIPOS>MOLECULE
*****
 24 27 0 0 0
SMALL
GASTEIGER

@<TRIPOS>ATOM
      1 N         139.4992  141.7109  164.8030 N.ar    1  UNL1       -0.3087
      2 C         139.6297  141.8610  163.3162 C.ar    1  UNL1        0.1493
      3 N         139.3769  140.5211  162.6912 N.ar    1  UNL1       -0.2284
      4 C         139.0901  139.5429  163.7916 C.ar    1  UNL1        0.0984
      5 C         138.7698  138.0776  163.7737 C.ar    1  UNL1        0.0206
      6 C         138.5252  137.3477  165.0611 C.ar    1  UNL1        0.0016
      7 C         138.6008  138.0830  166.3663 C.ar    1  UNL1        0.0016
      8 C         138.9211  139.5483  166.3841 C.ar    1  UNL1        0.0188
      9 C         139.1657  140.2782  165.0968 C.ar    1  UNL1        0.0789
     10 C         139.9559  143.1284  162.5833 C.3     1  UNL1        0.1869
     11 C         141.1370  143.1782  161.6601 C.3     1  UNL1        0.1064
     12 N         141.4632  144.4457  160.9271 N.3     1  UNL1       -0.2930
     13 C         140.6081  145.6633  161.1173 C.3     1  UNL1        0.1011
     14 C         139.4269  145.6135  162.0405 C.3     1  UNL1        0.1597
     15 O         139.1008  144.3460  162.7735 O.3     1  UNL1       -0.3458
     16 H         141.4424  144.2239  159.9318 H       1  UNL1        0.1234
     17 C         139.6719  142.8019  165.8178 C.3     1  UNL1        0.1340
     18 C         143.9898  142.3877  169.9631 C.3     1  UNL1        0.0310
     19 C         142.9104  142.4912  168.9268 C.ar    1  UNL1       -0.0219
     20 C         141.5166  142.8711  169.3310 C.ar    1  UNL1       -0.0045
     21 C         140.4372  142.9746  168.2946 C.ar    1  UNL1       -0.0027
     22 C         140.7514  142.6983  166.8541 C.ar    1  UNL1        0.0004
     23 C         142.1451  142.3184  166.4500 C.ar    1  UNL1       -0.0027
     24 C         143.2245  142.2149  167.4864 C.ar    1  UNL1       -0.0045
@<TRIPOS>BOND
     1    18    19    1
     2    19    20   ar
     3    20    21   ar
     4    21    22   ar
     5    22    17    1
     6    17     1    1
     7     1     2   ar
     8    10     2    1
     9    10    11    1
    10    11    12    1
    11    12    13    1
    12    13    14    1
    13    14    15    1
    14     2     3   ar
    15     3     4   ar
    16     4     5   ar
    17     5     6   ar
    18     6     7   ar
    19     7     8   ar
    20     8     9   ar
    21    22    23   ar
    22    23    24   ar
    23    24    19   ar
    24     9     1   ar
    25    15    10    1
    26     9     4   ar
    27    12    16    1
@<TRIPOS>MOLECULE
*****
 24 27 0 0 0
SMALL
GASTEIGER

@<TRIPOS>ATOM
      1 N         140.9353  141.2782  166.4571 N.ar    1  UNL1       -0.3087
      2 C         140.0683  140.0716  166.2512 C.ar    1  UNL1        0.1493
      3 N         139.3429  139.7975  167.5352 N.ar    1  UNL1       -0.2284
      4 C         139.7615  140.8347  168.5346 C.ar    1  UNL1        0.0984
      5 C         139.3737  141.0641  169.9653 C.ar    1  UNL1        0.0206
      6 C         139.9701  142.2086  170.7297 C.ar    1  UNL1        0.0016
      7 C         140.9543  143.1237  170.0635 C.ar    1  UNL1        0.0016
      8 C         141.3421  142.8943  168.6328 C.ar    1  UNL1        0.0188
      9 C         140.7457  141.7498  167.8684 C.ar    1  UNL1        0.0789
     10 C         139.9479  139.2783  164.9838 C.3     1  UNL1        0.1869
     11 C         138.8476  139.5819  164.0106 C.3     1  UNL1        0.1064
     12 N         138.7272  138.7887  162.7433 N.3     1  UNL1       -0.2930
     13 C         139.7071  137.6918  162.4490 C.3     1  UNL1        0.1011
     14 C         140.8074  137.3882  163.4222 C.3     1  UNL1        0.1597
     15 O         140.9278  138.1814  164.6896 O.3     1  UNL1       -0.3458
     16 H         138.7896  139.4539  161.9725 H       1  UNL1        0.1234
     17 C         141.8342  141.9034  165.4318 C.3     1  UNL1        0.1340
     18 C         139.7684  146.3031  161.9141 C.3     1  UNL1        0.0310
     19 C         140.2848  145.2032  162.7935 C.ar    1  UNL1       -0.0219
     20 C         141.7063  144.7427  162.6620 C.ar    1  UNL1       -0.0045
     21 C         142.2228  143.6427  163.5414 C.ar    1  UNL1       -0.0027
     22 C         141.3177  143.0032  164.5525 C.ar    1  UNL1        0.0004
     23 C         139.8962  143.4638  164.6839 C.ar    1  UNL1       -0.0027
     24 C         139.3798  144.5637  163.8045 C.ar    1  UNL1       -0.0045
@<TRIPOS>BOND
     1    18    19    1
     2    19    20   ar
     3    20    21   ar
     4    21    22   ar
     5    22    17    1
     6    17     1    1
     7     1     2   ar
     8    10     2    1
     9    10    11    1
    10    11    12    1
    11    12    13    1
    12    13    14    1
    13    14    15    1
    14     2     3   ar
    15     3     4   ar
    16     4     5   ar
    17     5     6   ar
    18     6     7   ar
    19     7     8   ar
    20     8     9   ar
    21    22    23   ar
    22    23    24   ar
    23    24    19   ar
    24     9     1   ar
    25    15    10    1
    26     9     4   ar
    27    12    16    1
