@<TRIPOS>MOLECULE
*****
 41 44 0 0 0
SMALL
GASTEIGER

@<TRIPOS>ATOM
      1 C         140.4057  143.2885  163.9301 C.2     1  UNL1        0.2469
      2 O         141.8896  143.5047  163.9719 O.2     1  UNL1       -0.2701
      3 N         139.5167  144.3114  163.2872 N.am    1  UNL1       -0.2985
      4 H         138.5428  144.1696  163.2598 H       1  UNL1        0.1498
      5 C         140.3087  141.2186  168.9257 C.2     1  UNL1        0.1179
      6 C         140.9033  142.4576  168.3246 C.2     1  UNL1       -0.0015
      7 C         140.7375  142.7346  166.8598 C.3     1  UNL1        0.0540
      8 C         139.9769  141.7726  165.9960 C.2     1  UNL1       -0.0076
      9 C         139.8111  142.0496  164.5311 C.2     1  UNL1        0.0665
     10 C         139.0506  141.0876  163.6674 C.2     1  UNL1        0.0931
     11 N         138.4559  139.8486  164.2684 N.am    1  UNL1       -0.1740
     12 C         138.6217  139.5716  165.7333 C.2     1  UNL1        0.2688
     13 O         138.0271  138.3326  166.3343 O.2     1  UNL1       -0.2680
     14 C         139.3823  140.5336  166.5971 C.2     1  UNL1        0.0533
     15 C         139.5481  140.2566  168.0619 C.2     1  UNL1        0.0238
     16 N         140.6404  140.6646  171.8554 N.3     1  UNL1       -0.2035
     17 S         140.4745  140.9416  170.3905 S.O2    1  UNL1        0.0568
     18 O         141.1597  142.2648  170.5631 O.2     1  UNL1       -0.1532
     19 O         139.7893  139.6185  170.2179 O.2     1  UNL1       -0.1532
     20 H         141.6172  140.7963  172.1178 H       1  UNL1        0.1442
     21 H         140.3617  139.7036  172.0534 H       1  UNL1        0.1442
     22 C         140.1114  145.5504  162.6861 C.3     1  UNL1        0.1204
     23 C         139.7910  145.9249  161.2694 C.3     1  UNL1        0.1459
     24 O         138.8155  147.0291  160.9879 O.3     1  UNL1       -0.3813
     25 H         138.4875  147.3922  161.8254 H       1  UNL1        0.2105
     26 C         140.4459  145.1952  160.1343 C.3     1  UNL1        0.1034
     27 N         141.2232  143.9399  160.3987 N.3     1  UNL1       -0.2704
     28 C         140.5293  142.6102  160.3805 C.3     1  UNL1        0.0759
     29 C         141.3066  141.3549  160.6449 C.3     1  UNL1        0.0609
     30 C         142.7779  141.4292  160.9274 C.3     1  UNL1        0.1687
     31 C         143.4719  142.7589  160.9456 C.3     1  UNL1        0.0609
     32 C         142.6946  144.0143  160.6812 C.3     1  UNL1        0.0759
     33 O         143.5552  140.1738  161.1918 O.3     1  UNL1       -0.4790
     34 C         143.6160  139.6076  162.5795 C.ar    1  UNL1        0.1393
     35 C         144.8249  139.8467  163.4347 C.ar    1  UNL1        0.0378
     36 C         144.8858  139.2805  164.8224 C.ar    1  UNL1        0.0154
     37 C         143.7378  138.4751  165.3548 C.ar    1  UNL1        0.0684
     38 CL        143.7987  137.9089  166.7425 Cl      1  UNL1       -0.0814
     39 C         142.5289  138.2360  164.4996 C.ar    1  UNL1        0.0712
     40 CL        141.3809  137.4306  165.0321 Cl      1  UNL1       -0.0813
     41 C         142.4680  138.8022  163.1119 C.ar    1  UNL1        0.0491
@<TRIPOS>BOND
     1    16    17    1
     2    17    18    2
     3    17    19    2
     4    17     5    1
     5     5     6    2
     6     6     7    1
     7     7     8    1
     8     8     9    2
     9     9     1    1
    10     1     2    2
    11     1     3   am
    12     3    22    1
    13    22    23    1
    14    23    24    1
    15    23    26    1
    16    26    27    1
    17    27    28    1
    18    28    29    1
    19    29    30    1
    20    30    33    1
    21    33    34    1
    22    34    35   ar
    23    35    36   ar
    24    36    37   ar
    25    37    38    1
    26    37    39   ar
    27    39    40    1
    28    39    41   ar
    29    30    31    1
    30    31    32    1
    31     9    10    1
    32    10    11    2
    33    11    12    1
    34    12    13    2
    35    12    14    1
    36    14    15    2
    37    15     5    1
    38    14     8    1
    39    32    27    1
    40    41    34   ar
    41    16    20    1
    42    16    21    1
    43     3     4    1
    44    24    25    1
@<TRIPOS>MOLECULE
*****
 41 44 0 0 0
SMALL
GASTEIGER

@<TRIPOS>ATOM
      1 C         138.3987  139.0983  166.7271 C.2     1  UNL1        0.2469
      2 O         137.1853  138.4480  167.3229 O.2     1  UNL1       -0.2701
      3 N         139.3451  139.8648  167.6028 N.am    1  UNL1       -0.2985
      4 H         140.1414  140.2916  167.2118 H       1  UNL1        0.1498
      5 C         139.1189  142.6929  162.7509 C.2     1  UNL1        0.1179
      6 C         138.8519  142.8092  164.2223 C.2     1  UNL1       -0.0015
      7 C         138.7008  141.5722  165.0573 C.3     1  UNL1        0.0540
      8 C         138.8168  140.2190  164.4208 C.2     1  UNL1       -0.0076
      9 C         138.6657  138.9820  165.2557 C.2     1  UNL1        0.0665
     10 C         138.7817  137.6287  164.6192 C.2     1  UNL1        0.0931
     11 N         139.0488  137.5124  163.1477 N.am    1  UNL1       -0.1740
     12 C         139.1998  138.7493  162.3128 C.2     1  UNL1        0.2688
     13 O         139.4668  138.6330  160.8414 O.2     1  UNL1       -0.2680
     14 C         139.0838  140.1027  162.9493 C.2     1  UNL1        0.0533
     15 C         139.2349  141.3396  162.1144 C.2     1  UNL1        0.0238
     16 N         139.4210  145.1668  161.0811 N.3     1  UNL1       -0.2035
     17 S         139.2700  143.9299  161.9160 S.O2    1  UNL1        0.0568
     18 O         137.9434  144.4256  162.4104 O.2     1  UNL1       -0.1532
     19 O         140.5966  143.4341  161.4216 O.2     1  UNL1       -0.1532
     20 H         138.5860  145.2953  160.5095 H       1  UNL1        0.1442
     21 H         140.2361  145.0708  160.4754 H       1  UNL1        0.1442
     22 C         139.0780  139.9811  169.0743 C.3     1  UNL1        0.1204
     23 C         140.2053  140.2701  170.0206 C.3     1  UNL1        0.1459
     24 O         140.1011  139.8585  171.4593 O.3     1  UNL1       -0.3813
     25 H         139.2483  139.4215  171.6096 H       1  UNL1        0.2105
     26 C         141.4369  140.9707  169.5283 C.3     1  UNL1        0.1034
     27 N         142.0924  140.5284  168.2536 N.3     1  UNL1       -0.2704
     28 C         142.1591  141.4620  167.0815 C.3     1  UNL1        0.0759
     29 C         142.8146  141.0197  165.8068 C.3     1  UNL1        0.0609
     30 C         143.4033  139.6440  165.7043 C.3     1  UNL1        0.1687
     31 C         143.3366  138.7103  166.8765 C.3     1  UNL1        0.0609
     32 C         142.6811  139.1525  168.1511 C.3     1  UNL1        0.0759
     33 O         144.0588  139.2017  164.4296 O.3     1  UNL1       -0.4790
     34 C         144.0525  140.1035  163.2310 C.ar    1  UNL1        0.1393
     35 C         145.0830  141.1859  163.1013 C.ar    1  UNL1        0.0378
     36 C         145.0768  142.0876  161.9027 C.ar    1  UNL1        0.0154
     37 C         144.0401  141.9070  160.8337 C.ar    1  UNL1        0.0684
     38 CL        144.0339  142.8088  159.6350 Cl      1  UNL1       -0.0814
     39 C         143.0097  140.8247  160.9633 C.ar    1  UNL1        0.0712
     40 CL        141.9731  140.6442  159.8942 Cl      1  UNL1       -0.0813
     41 C         143.0159  139.9229  162.1619 C.ar    1  UNL1        0.0491
@<TRIPOS>BOND
     1    16    17    1
     2    17    18    2
     3    17    19    2
     4    17     5    1
     5     5     6    2
     6     6     7    1
     7     7     8    1
     8     8     9    2
     9     9     1    1
    10     1     2    2
    11     1     3   am
    12     3    22    1
    13    22    23    1
    14    23    24    1
    15    23    26    1
    16    26    27    1
    17    27    28    1
    18    28    29    1
    19    29    30    1
    20    30    33    1
    21    33    34    1
    22    34    35   ar
    23    35    36   ar
    24    36    37   ar
    25    37    38    1
    26    37    39   ar
    27    39    40    1
    28    39    41   ar
    29    30    31    1
    30    31    32    1
    31     9    10    1
    32    10    11    2
    33    11    12    1
    34    12    13    2
    35    12    14    1
    36    14    15    2
    37    15     5    1
    38    14     8    1
    39    32    27    1
    40    41    34   ar
    41    16    20    1
    42    16    21    1
    43     3     4    1
    44    24    25    1
@<TRIPOS>MOLECULE
*****
 41 44 0 0 0
SMALL
GASTEIGER

@<TRIPOS>ATOM
      1 C         143.2213  143.7988  162.1315 C.2     1  UNL1        0.2469
      2 O         144.4676  144.5772  162.4326 O.2     1  UNL1       -0.2701
      3 N         143.2337  142.7477  161.0613 N.am    1  UNL1       -0.2985
      4 H         142.4158  142.2368  160.8636 H       1  UNL1        0.1498
      5 C         141.2663  142.0569  166.8636 C.2     1  UNL1        0.1179
      6 C         142.5250  141.7843  166.0947 C.2     1  UNL1       -0.0015
      7 C         142.7571  142.4558  164.7736 C.3     1  UNL1        0.0540
      8 C         141.7305  143.3998  164.2215 C.2     1  UNL1       -0.0076
      9 C         141.9626  144.0713  162.9004 C.2     1  UNL1        0.0665
     10 C         140.9360  145.0153  162.3483 C.2     1  UNL1        0.0931
     11 N         139.6772  145.2879  163.1172 N.am    1  UNL1       -0.1740
     12 C         139.4451  144.6164  164.4383 C.2     1  UNL1        0.2688
     13 O         138.1864  144.8889  165.2073 O.2     1  UNL1       -0.2680
     14 C         140.4718  143.6724  164.9904 C.2     1  UNL1        0.0533
     15 C         140.2397  143.0009  166.3115 C.2     1  UNL1        0.0238
     16 N         140.8020  140.7139  169.5058 N.3     1  UNL1       -0.2035
     17 S         141.0341  141.3854  168.1847 S.O2    1  UNL1        0.0568
     18 O         141.5986  140.1089  167.6351 O.2     1  UNL1       -0.1532
     19 O         140.4697  142.6618  168.7344 O.2     1  UNL1       -0.1532
     20 H         140.2805  139.8494  169.3608 H       1  UNL1        0.1442
     21 H         140.2683  141.3351  170.1138 H       1  UNL1        0.1442
     22 C         144.4925  142.4752  160.2923 C.3     1  UNL1        0.1204
     23 C         144.4237  142.1668  158.8260 C.3     1  UNL1        0.1459
     24 O         144.7385  143.2337  157.8196 O.3     1  UNL1       -0.3813
     25 H         144.9656  144.0563  158.2808 H       1  UNL1        0.2105
     26 C         144.0401  140.7916  158.3660 C.3     1  UNL1        0.1034
     27 N         142.9733  140.0279  159.0931 N.3     1  UNL1       -0.2704
     28 C         141.5270  140.2925  158.7963 C.3     1  UNL1        0.0759
     29 C         140.4602  139.5288  159.5234 C.3     1  UNL1        0.0609
     30 C         140.8397  138.5005  160.5474 C.3     1  UNL1        0.1687
     31 C         142.2861  138.2359  160.8443 C.3     1  UNL1        0.0609
     32 C         143.3529  138.9996  160.1172 C.3     1  UNL1        0.0759
     33 O         139.7729  137.7369  161.2745 O.3     1  UNL1       -0.4790
     34 C         139.3596  138.1549  162.6544 C.ar    1  UNL1        0.1393
     35 C         139.5166  137.2049  163.8046 C.ar    1  UNL1        0.0378
     36 C         139.1033  137.6230  165.1845 C.ar    1  UNL1        0.0154
     37 C         138.5330  138.9911  165.4145 C.ar    1  UNL1        0.0684
     38 CL        138.1197  139.4092  166.7944 Cl      1  UNL1       -0.0814
     39 C         138.3759  139.9412  164.2644 C.ar    1  UNL1        0.0712
     40 CL        137.8056  141.3093  164.4943 Cl      1  UNL1       -0.0813
     41 C         138.7892  139.5231  162.8843 C.ar    1  UNL1        0.0491
@<TRIPOS>BOND
     1    16    17    1
     2    17    18    2
     3    17    19    2
     4    17     5    1
     5     5     6    2
     6     6     7    1
     7     7     8    1
     8     8     9    2
     9     9     1    1
    10     1     2    2
    11     1     3   am
    12     3    22    1
    13    22    23    1
    14    23    24    1
    15    23    26    1
    16    26    27    1
    17    27    28    1
    18    28    29    1
    19    29    30    1
    20    30    33    1
    21    33    34    1
    22    34    35   ar
    23    35    36   ar
    24    36    37   ar
    25    37    38    1
    26    37    39   ar
    27    39    40    1
    28    39    41   ar
    29    30    31    1
    30    31    32    1
    31     9    10    1
    32    10    11    2
    33    11    12    1
    34    12    13    2
    35    12    14    1
    36    14    15    2
    37    15     5    1
    38    14     8    1
    39    32    27    1
    40    41    34   ar
    41    16    20    1
    42    16    21    1
    43     3     4    1
    44    24    25    1
@<TRIPOS>MOLECULE
*****
 41 44 0 0 0
SMALL
GASTEIGER

@<TRIPOS>ATOM
      1 C         141.2663  145.0766  161.8143 C.2     1  UNL1        0.2469
      2 O         140.1415  146.0505  162.0061 O.2     1  UNL1       -0.2701
      3 N         141.8009  144.8099  160.4384 N.am    1  UNL1       -0.2985
      4 H         142.5391  144.1708  160.3125 H       1  UNL1        0.1498
      5 C         139.5482  141.0908  165.0409 C.2     1  UNL1        0.1179
      6 C         138.9582  141.7978  163.8569 C.2     1  UNL1       -0.0015
      7 C         139.7275  142.8908  163.1760 C.3     1  UNL1        0.0540
      8 C         141.0869  143.2766  163.6792 C.2     1  UNL1       -0.0076
      9 C         141.8563  144.3695  162.9983 C.2     1  UNL1        0.0665
     10 C         143.2156  144.7554  163.5014 C.2     1  UNL1        0.0931
     11 N         143.8057  144.0483  164.6854 N.am    1  UNL1       -0.1740
     12 C         143.0364  142.9554  165.3663 C.2     1  UNL1        0.2688
     13 O         143.6264  142.2483  166.5503 O.2     1  UNL1       -0.2680
     14 C         141.6769  142.5695  164.8631 C.2     1  UNL1        0.0533
     15 C         140.9076  141.4766  165.5440 C.2     1  UNL1        0.0238
     16 N         138.0094  138.9049  166.4027 N.3     1  UNL1       -0.2035
     17 S         138.7788  139.9978  165.7218 S.O2    1  UNL1        0.0568
     18 O         138.1663  139.6108  164.4084 O.2     1  UNL1       -0.1532
     19 O         139.3913  140.3849  167.0352 O.2     1  UNL1       -0.1532
     20 H         137.0212  138.9848  166.1633 H       1  UNL1        0.1442
     21 H         138.1224  138.9882  167.4130 H       1  UNL1        0.1442
     22 C         141.2108  145.5171  159.2544 C.3     1  UNL1        0.1204
     23 C         140.6773  144.7255  158.0973 C.3     1  UNL1        0.1459
     24 O         141.1592  145.0130  156.7062 O.3     1  UNL1       -0.3813
     25 H         141.8082  145.7334  156.7312 H       1  UNL1        0.2105
     26 C         139.6620  143.6464  158.3314 C.3     1  UNL1        0.1034
     27 N         140.0745  142.3549  158.9731 N.3     1  UNL1       -0.2704
     28 C         141.4516  141.8079  158.7401 C.3     1  UNL1        0.0759
     29 C         141.8641  140.5163  159.3818 C.3     1  UNL1        0.0609
     30 C         140.8995  139.7719  160.2566 C.3     1  UNL1        0.1687
     31 C         139.5223  140.3189  160.4897 C.3     1  UNL1        0.0609
     32 C         139.1098  141.6104  159.8479 C.3     1  UNL1        0.0759
     33 O         141.3120  138.4804  160.8983 O.3     1  UNL1       -0.4790
     34 C         141.8461  138.4763  162.3000 C.ar    1  UNL1        0.1393
     35 C         141.1073  137.7461  163.3821 C.ar    1  UNL1        0.0378
     36 C         141.6415  137.7421  164.7837 C.ar    1  UNL1        0.0154
     37 C         142.9145  138.4683  165.1033 C.ar    1  UNL1        0.0684
     38 CL        143.4486  138.4643  166.5049 Cl      1  UNL1       -0.0814
     39 C         143.6533  139.1985  164.0213 C.ar    1  UNL1        0.0712
     40 CL        144.9262  139.9248  164.3408 Cl      1  UNL1       -0.0813
     41 C         143.1191  139.2026  162.6195 C.ar    1  UNL1        0.0491
@<TRIPOS>BOND
     1    16    17    1
     2    17    18    2
     3    17    19    2
     4    17     5    1
     5     5     6    2
     6     6     7    1
     7     7     8    1
     8     8     9    2
     9     9     1    1
    10     1     2    2
    11     1     3   am
    12     3    22    1
    13    22    23    1
    14    23    24    1
    15    23    26    1
    16    26    27    1
    17    27    28    1
    18    28    29    1
    19    29    30    1
    20    30    33    1
    21    33    34    1
    22    34    35   ar
    23    35    36   ar
    24    36    37   ar
    25    37    38    1
    26    37    39   ar
    27    39    40    1
    28    39    41   ar
    29    30    31    1
    30    31    32    1
    31     9    10    1
    32    10    11    2
    33    11    12    1
    34    12    13    2
    35    12    14    1
    36    14    15    2
    37    15     5    1
    38    14     8    1
    39    32    27    1
    40    41    34   ar
    41    16    20    1
    42    16    21    1
    43     3     4    1
    44    24    25    1
@<TRIPOS>MOLECULE
*****
 41 44 0 0 0
SMALL
GASTEIGER

@<TRIPOS>ATOM
      1 C         143.3645  139.3752  159.7384 C.2     1  UNL1        0.2469
      2 O         144.3228  139.8799  158.7006 O.2     1  UNL1       -0.2701
      3 N         142.4079  138.2700  159.4015 N.am    1  UNL1       -0.2985
      4 H         141.7789  137.9387  160.0826 H       1  UNL1        0.1498
      5 C         141.3974  143.9605  161.8253 C.2     1  UNL1        0.1179
      6 C         141.3990  143.3601  160.4507 C.2     1  UNL1       -0.0015
      7 C         142.0542  142.0318  160.2133 C.3     1  UNL1        0.0540
      8 C         142.7077  141.3039  161.3504 C.2     1  UNL1       -0.0076
      9 C         143.3629  139.9756  161.1129 C.2     1  UNL1        0.0665
     10 C         144.0164  139.2477  162.2500 C.2     1  UNL1        0.0931
     11 N         144.0147  139.8481  163.6247 N.am    1  UNL1       -0.1740
     12 C         143.3596  141.1764  163.8621 C.2     1  UNL1        0.2688
     13 O         143.3579  141.7769  165.2367 O.2     1  UNL1       -0.2680
     14 C         142.7060  141.9043  162.7249 C.2     1  UNL1        0.0533
     15 C         142.0509  143.2326  162.9624 C.2     1  UNL1        0.0238
     16 N         140.0870  146.6171  162.3002 N.3     1  UNL1       -0.2035
     17 S         140.7422  145.2888  162.0627 S.O2    1  UNL1        0.0568
     18 O         141.6897  145.5538  163.1950 O.2     1  UNL1       -0.1532
     19 O         139.7947  145.0238  160.9305 O.2     1  UNL1       -0.1532
     20 H         139.8278  146.6974  163.2834 H       1  UNL1        0.1442
     21 H         139.2509  146.6922  161.7208 H       1  UNL1        0.1442
     22 C         142.4096  137.6696  158.0269 C.3     1  UNL1        0.1204
     23 C         141.1695  137.7210  157.1845 C.3     1  UNL1        0.1459
     24 O         140.6980  136.4904  156.4679 O.3     1  UNL1       -0.3813
     25 H         141.3034  135.7558  156.6543 H       1  UNL1        0.2105
     26 C         140.4009  139.0030  157.0587 C.3     1  UNL1        0.1034
     27 N         139.6403  139.5400  158.2347 N.3     1  UNL1       -0.2704
     28 C         139.3075  138.6395  159.3872 C.3     1  UNL1        0.0759
     29 C         138.5469  139.1765  160.5633 C.3     1  UNL1        0.0609
     30 C         138.1192  140.6140  160.5869 C.3     1  UNL1        0.1687
     31 C         138.4520  141.5146  159.4343 C.3     1  UNL1        0.0609
     32 C         139.2126  140.9776  158.2583 C.3     1  UNL1        0.0759
     33 O         137.3586  141.1510  161.7629 O.3     1  UNL1       -0.4790
     34 C         138.0945  141.6004  162.9903 C.ar    1  UNL1        0.1393
     35 C         138.9626  140.6338  163.7402 C.ar    1  UNL1        0.0378
     36 C         139.6986  141.0832  164.9676 C.ar    1  UNL1        0.0154
     37 C         139.5665  142.4990  165.4451 C.ar    1  UNL1        0.0684
     38 CL        140.3024  142.9483  166.6724 Cl      1  UNL1       -0.0814
     39 C         138.6984  143.4655  164.6952 C.ar    1  UNL1        0.0712
     40 CL        138.5664  144.8813  165.1727 Cl      1  UNL1       -0.0813
     41 C         137.9624  143.0162  163.4678 C.ar    1  UNL1        0.0491
@<TRIPOS>BOND
     1    16    17    1
     2    17    18    2
     3    17    19    2
     4    17     5    1
     5     5     6    2
     6     6     7    1
     7     7     8    1
     8     8     9    2
     9     9     1    1
    10     1     2    2
    11     1     3   am
    12     3    22    1
    13    22    23    1
    14    23    24    1
    15    23    26    1
    16    26    27    1
    17    27    28    1
    18    28    29    1
    19    29    30    1
    20    30    33    1
    21    33    34    1
    22    34    35   ar
    23    35    36   ar
    24    36    37   ar
    25    37    38    1
    26    37    39   ar
    27    39    40    1
    28    39    41   ar
    29    30    31    1
    30    31    32    1
    31     9    10    1
    32    10    11    2
    33    11    12    1
    34    12    13    2
    35    12    14    1
    36    14    15    2
    37    15     5    1
    38    14     8    1
    39    32    27    1
    40    41    34   ar
    41    16    20    1
    42    16    21    1
    43     3     4    1
    44    24    25    1
@<TRIPOS>MOLECULE
*****
 41 44 0 0 0
SMALL
GASTEIGER

@<TRIPOS>ATOM
      1 C         143.1631  141.9841  159.6404 C.2     1  UNL1        0.2469
      2 O         142.9492  141.0805  158.4622 O.2     1  UNL1       -0.2701
      3 N         142.9536  143.4627  159.4993 N.am    1  UNL1       -0.2985
      4 H         143.0940  144.0557  160.2725 H       1  UNL1        0.1498
      5 C         140.6902  138.9586  163.3795 C.2     1  UNL1        0.1179
      6 C         140.2668  139.5336  162.0604 C.2     1  UNL1       -0.0015
      7 C         141.2322  140.3504  161.2537 C.3     1  UNL1        0.0540
      8 C         142.6211  140.5922  161.7661 C.2     1  UNL1       -0.0076
      9 C         143.5865  141.4091  160.9594 C.2     1  UNL1        0.0665
     10 C         144.9753  141.6509  161.4718 C.2     1  UNL1        0.0931
     11 N         145.3988  141.0758  162.7910 N.am    1  UNL1       -0.1740
     12 C         144.4334  140.2590  163.5977 C.2     1  UNL1        0.2688
     13 O         144.8568  139.6840  164.9168 O.2     1  UNL1       -0.2680
     14 C         143.0445  140.0172  163.0852 C.2     1  UNL1        0.0533
     15 C         142.0790  139.2004  163.8919 C.2     1  UNL1        0.0238
     16 N         138.7593  137.3249  164.9928 N.3     1  UNL1       -0.2035
     17 S         139.7248  138.1417  164.1861 S.O2    1  UNL1        0.0568
     18 O         140.8601  137.6188  165.0153 O.2     1  UNL1       -0.1532
     19 O         138.5895  138.6647  163.3569 O.2     1  UNL1       -0.1532
     20 H         139.0750  136.3554  165.0211 H       1  UNL1        0.1442
     21 H         137.8351  137.3692  164.5637 H       1  UNL1        0.1442
     22 C         142.5302  144.0377  158.1801 C.3     1  UNL1        0.1204
     23 C         141.8193  145.3576  158.1308 C.3     1  UNL1        0.1459
     24 O         142.5417  146.5810  157.6494 O.3     1  UNL1       -0.3813
     25 H         143.4521  146.3460  157.4109 H       1  UNL1        0.2105
     26 C         140.3862  145.4542  158.5629 C.3     1  UNL1        0.1034
     27 N         139.9809  144.9826  159.9279 N.3     1  UNL1       -0.2704
     28 C         139.4720  143.5844  160.1178 C.3     1  UNL1        0.0759
     29 C         139.0667  143.1127  161.4828 C.3     1  UNL1        0.0609
     30 C         139.1704  144.0392  162.6579 C.3     1  UNL1        0.1687
     31 C         139.6793  145.4374  162.4680 C.3     1  UNL1        0.0609
     32 C         140.0846  145.9091  161.1030 C.3     1  UNL1        0.0759
     33 O         138.7651  143.5675  164.0229 O.3     1  UNL1       -0.4790
     34 C         139.7462  142.8269  164.8825 C.ar    1  UNL1        0.1393
     35 C         139.2829  141.6818  165.7335 C.ar    1  UNL1        0.0378
     36 C         140.2640  140.9412  166.5931 C.ar    1  UNL1        0.0154
     37 C         141.7085  141.3456  166.6016 C.ar    1  UNL1        0.0684
     38 CL        142.6896  140.6050  167.4612 Cl      1  UNL1       -0.0814
     39 C         142.1718  142.4906  165.7506 C.ar    1  UNL1        0.0712
     40 CL        143.6162  142.8950  165.7592 Cl      1  UNL1       -0.0813
     41 C         141.1906  143.2313  164.8910 C.ar    1  UNL1        0.0491
@<TRIPOS>BOND
     1    16    17    1
     2    17    18    2
     3    17    19    2
     4    17     5    1
     5     5     6    2
     6     6     7    1
     7     7     8    1
     8     8     9    2
     9     9     1    1
    10     1     2    2
    11     1     3   am
    12     3    22    1
    13    22    23    1
    14    23    24    1
    15    23    26    1
    16    26    27    1
    17    27    28    1
    18    28    29    1
    19    29    30    1
    20    30    33    1
    21    33    34    1
    22    34    35   ar
    23    35    36   ar
    24    36    37   ar
    25    37    38    1
    26    37    39   ar
    27    39    40    1
    28    39    41   ar
    29    30    31    1
    30    31    32    1
    31     9    10    1
    32    10    11    2
    33    11    12    1
    34    12    13    2
    35    12    14    1
    36    14    15    2
    37    15     5    1
    38    14     8    1
    39    32    27    1
    40    41    34   ar
    41    16    20    1
    42    16    21    1
    43     3     4    1
    44    24    25    1
@<TRIPOS>MOLECULE
*****
 41 44 0 0 0
SMALL
GASTEIGER

@<TRIPOS>ATOM
      1 C         140.5331  143.0385  163.9707 C.2     1  UNL1        0.2469
      2 O         142.0061  142.9973  163.6903 O.2     1  UNL1       -0.2701
      3 N         139.7316  144.2492  163.5941 N.am    1  UNL1       -0.2985
      4 H         138.7648  144.2763  163.7781 H       1  UNL1        0.1498
      5 C         140.3739  141.1694  169.0433 C.2     1  UNL1        0.1179
      6 C         141.0453  142.3388  168.3863 C.2     1  UNL1       -0.0015
      7 C         140.8746  142.5721  166.9145 C.3     1  UNL1        0.0540
      8 C         140.0324  141.6359  166.0995 C.2     1  UNL1       -0.0076
      9 C         139.8616  141.8691  164.6276 C.2     1  UNL1        0.0665
     10 C         139.0195  140.9329  163.8126 C.2     1  UNL1        0.0931
     11 N         138.3480  139.7634  164.4695 N.am    1  UNL1       -0.1740
     12 C         138.5187  139.5302  165.9414 C.2     1  UNL1        0.2688
     13 O         137.8473  138.3607  166.5983 O.2     1  UNL1       -0.2680
     14 C         139.3609  140.4664  166.7564 C.2     1  UNL1        0.0533
     15 C         139.5317  140.2332  168.2283 C.2     1  UNL1        0.0238
     16 N         140.7153  140.7030  171.9870 N.3     1  UNL1       -0.2035
     17 S         140.5446  140.9362  170.5152 S.O2    1  UNL1        0.0568
     18 O         140.2159  139.4853  170.3234 O.2     1  UNL1       -0.1532
     19 O         140.8733  142.3871  170.7069 O.2     1  UNL1       -0.1532
     20 H         139.8902  140.2288  172.3541 H       1  UNL1        0.1442
     21 H         140.8324  141.5981  172.4618 H       1  UNL1        0.1442
     22 C         140.4031  145.4186  162.9372 C.3     1  UNL1        0.1204
     23 C         140.0911  145.7579  161.5097 C.3     1  UNL1        0.1459
     24 O         139.0556  146.7964  161.1947 O.3     1  UNL1       -0.3813
     25 H         138.6875  147.1469  162.0208 H       1  UNL1        0.2105
     26 C         140.8147  145.0586  160.3973 C.3     1  UNL1        0.1034
     27 N         140.7873  143.5615  160.3092 N.3     1  UNL1       -0.2704
     28 C         142.0719  142.7910  160.2320 C.3     1  UNL1        0.0759
     29 C         142.0445  141.2939  160.1439 C.3     1  UNL1        0.0609
     30 C         140.7323  140.5672  160.1330 C.3     1  UNL1        0.1687
     31 C         139.4476  141.3376  160.2101 C.3     1  UNL1        0.0609
     32 C         139.4750  142.8348  160.2982 C.3     1  UNL1        0.0759
     33 O         140.7049  139.0700  160.0449 O.3     1  UNL1       -0.4790
     34 C         140.9992  138.3899  158.7407 C.ar    1  UNL1        0.1393
     35 C         142.4162  138.0760  158.3616 C.ar    1  UNL1        0.0378
     36 C         142.7105  137.3959  157.0574 C.ar    1  UNL1        0.0154
     37 C         141.5880  137.0298  156.1324 C.ar    1  UNL1        0.0684
     38 CL        141.8823  136.3497  154.8282 Cl      1  UNL1       -0.0814
     39 C         140.1710  137.3437  156.5114 C.ar    1  UNL1        0.0712
     40 CL        139.0485  136.9775  155.5864 Cl      1  UNL1       -0.0813
     41 C         139.8766  138.0238  157.8156 C.ar    1  UNL1        0.0491
@<TRIPOS>BOND
     1    16    17    1
     2    17    18    2
     3    17    19    2
     4    17     5    1
     5     5     6    2
     6     6     7    1
     7     7     8    1
     8     8     9    2
     9     9     1    1
    10     1     2    2
    11     1     3   am
    12     3    22    1
    13    22    23    1
    14    23    24    1
    15    23    26    1
    16    26    27    1
    17    27    28    1
    18    28    29    1
    19    29    30    1
    20    30    33    1
    21    33    34    1
    22    34    35   ar
    23    35    36   ar
    24    36    37   ar
    25    37    38    1
    26    37    39   ar
    27    39    40    1
    28    39    41   ar
    29    30    31    1
    30    31    32    1
    31     9    10    1
    32    10    11    2
    33    11    12    1
    34    12    13    2
    35    12    14    1
    36    14    15    2
    37    15     5    1
    38    14     8    1
    39    32    27    1
    40    41    34   ar
    41    16    20    1
    42    16    21    1
    43     3     4    1
    44    24    25    1
@<TRIPOS>MOLECULE
*****
 41 44 0 0 0
SMALL
GASTEIGER

@<TRIPOS>ATOM
      1 C         141.0942  139.4151  159.9100 C.2     1  UNL1        0.2469
      2 O         140.3986  138.2681  159.2387 O.2     1  UNL1       -0.2701
      3 N         141.1649  140.7506  159.2307 N.am    1  UNL1       -0.2985
      4 H         141.6214  141.5034  159.6713 H       1  UNL1        0.1498
      5 C         139.1135  138.6840  164.8892 C.2     1  UNL1        0.1179
      6 C         138.4887  138.8725  163.5387 C.2     1  UNL1       -0.0015
      7 C         139.3572  139.0534  162.3291 C.3     1  UNL1        0.0540
      8 C         140.8505  139.0458  162.4701 C.2     1  UNL1       -0.0076
      9 C         141.7190  139.2266  161.2606 C.2     1  UNL1        0.0665
     10 C         143.2123  139.2190  161.4016 C.2     1  UNL1        0.0931
     11 N         143.8372  139.0305  162.7522 N.am    1  UNL1       -0.1740
     12 C         142.9687  138.8496  163.9617 C.2     1  UNL1        0.2688
     13 O         143.5935  138.6612  165.3123 O.2     1  UNL1       -0.2680
     14 C         141.4753  138.8573  163.8207 C.2     1  UNL1        0.0533
     15 C         140.6068  138.6764  165.0302 C.2     1  UNL1        0.0238
     16 N         137.3766  138.3223  167.3083 N.3     1  UNL1       -0.2035
     17 S         138.2451  138.5031  166.0988 S.O2    1  UNL1        0.0568
     18 O         138.2899  137.0159  165.9086 O.2     1  UNL1       -0.1532
     19 O         138.2002  139.9904  166.2890 O.2     1  UNL1       -0.1532
     20 H         136.5803  137.7311  167.0699 H       1  UNL1        0.1442
     21 H         137.0416  139.2320  167.6255 H       1  UNL1        0.1442
     22 C         140.5400  140.9391  157.8801 C.3     1  UNL1        0.1204
     23 C         139.0647  141.1837  157.7639 C.3     1  UNL1        0.1459
     24 O         138.1726  140.1266  157.1834 O.3     1  UNL1       -0.3813
     25 H         138.7050  139.3545  156.9358 H       1  UNL1        0.2105
     26 C         138.4814  142.4853  158.2281 C.3     1  UNL1        0.1034
     27 N         138.8422  143.0298  159.5784 N.3     1  UNL1       -0.2704
     28 C         138.2511  142.4206  160.8151 C.3     1  UNL1        0.0759
     29 C         138.6120  142.9651  162.1654 C.3     1  UNL1        0.0609
     30 C         139.5639  144.1187  162.2790 C.3     1  UNL1        0.1687
     31 C         140.1551  144.7279  161.0423 C.3     1  UNL1        0.0609
     32 C         139.7942  144.1834  159.6919 C.3     1  UNL1        0.0759
     33 O         139.9248  144.6631  163.6293 O.3     1  UNL1       -0.4790
     34 C         140.6303  143.7914  164.6254 C.ar    1  UNL1        0.1393
     35 C         139.9175  143.3419  165.8663 C.ar    1  UNL1        0.0378
     36 C         140.6231  142.4701  166.8624 C.ar    1  UNL1        0.0154
     37 C         142.0415  142.0479  166.6176 C.ar    1  UNL1        0.0684
     38 CL        142.7471  141.1762  167.6137 Cl      1  UNL1       -0.0814
     39 C         142.7543  142.4974  165.3767 C.ar    1  UNL1        0.0712
     40 CL        144.1727  142.0752  165.1319 Cl      1  UNL1       -0.0813
     41 C         142.0487  143.3692  164.3806 C.ar    1  UNL1        0.0491
@<TRIPOS>BOND
     1    16    17    1
     2    17    18    2
     3    17    19    2
     4    17     5    1
     5     5     6    2
     6     6     7    1
     7     7     8    1
     8     8     9    2
     9     9     1    1
    10     1     2    2
    11     1     3   am
    12     3    22    1
    13    22    23    1
    14    23    24    1
    15    23    26    1
    16    26    27    1
    17    27    28    1
    18    28    29    1
    19    29    30    1
    20    30    33    1
    21    33    34    1
    22    34    35   ar
    23    35    36   ar
    24    36    37   ar
    25    37    38    1
    26    37    39   ar
    27    39    40    1
    28    39    41   ar
    29    30    31    1
    30    31    32    1
    31     9    10    1
    32    10    11    2
    33    11    12    1
    34    12    13    2
    35    12    14    1
    36    14    15    2
    37    15     5    1
    38    14     8    1
    39    32    27    1
    40    41    34   ar
    41    16    20    1
    42    16    21    1
    43     3     4    1
    44    24    25    1
@<TRIPOS>MOLECULE
*****
 41 44 0 0 0
SMALL
GASTEIGER

@<TRIPOS>ATOM
      1 C         138.7670  140.0040  165.4150 C.2     1  UNL1        0.2469
      2 O         138.2658  138.5962  165.5456 O.2     1  UNL1       -0.2701
      3 N         139.3831  140.6933  166.5962 N.am    1  UNL1       -0.2985
      4 H         139.7120  141.6173  166.5106 H       1  UNL1        0.1498
      5 C         141.5100  139.7725  160.7597 C.2     1  UNL1        0.1179
      6 C         141.6249  139.0540  162.0714 C.2     1  UNL1       -0.0015
      7 C         140.6723  139.3707  163.1859 C.3     1  UNL1        0.0540
      8 C         139.6047  140.4058  162.9888 C.2     1  UNL1       -0.0076
      9 C         138.6521  140.7224  164.1033 C.2     1  UNL1        0.0665
     10 C         137.5845  141.7575  163.9062 C.2     1  UNL1        0.0931
     11 N         137.4695  142.4759  162.5944 N.am    1  UNL1       -0.1740
     12 C         138.4222  142.1593  161.4798 C.2     1  UNL1        0.2688
     13 O         138.3072  142.8777  160.1681 O.2     1  UNL1       -0.2680
     14 C         139.4898  141.1242  161.6771 C.2     1  UNL1        0.0533
     15 C         140.4424  140.8075  160.5625 C.2     1  UNL1        0.0238
     16 N         143.4152  139.1392  158.5306 N.3     1  UNL1       -0.2035
     17 S         142.4626  139.4558  159.6451 S.O2    1  UNL1        0.0568
     18 O         143.4597  138.9449  160.6425 O.2     1  UNL1       -0.1532
     19 O         141.4655  139.9667  158.6477 O.2     1  UNL1       -0.1532
     20 H         144.3231  139.5595  158.7295 H       1  UNL1        0.1442
     21 H         143.0511  139.5149  157.6550 H       1  UNL1        0.1442
     22 C         139.4980  139.9748  167.9080 C.3     1  UNL1        0.1204
     23 C         140.7091  140.1762  168.7698 C.3     1  UNL1        0.1459
     24 O         140.5701  140.8093  170.1226 O.3     1  UNL1       -0.3813
     25 H         139.6386  141.0269  170.2836 H       1  UNL1        0.2105
     26 C         142.0591  139.7444  168.2789 C.3     1  UNL1        0.1034
     27 N         142.7125  140.4738  167.1427 N.3     1  UNL1       -0.2704
     28 C         143.1375  139.7236  165.9153 C.3     1  UNL1        0.0759
     29 C         143.7909  140.4529  164.7791 C.3     1  UNL1        0.0609
     30 C         144.0193  141.9326  164.8702 C.3     1  UNL1        0.1687
     31 C         143.5944  142.6830  166.0976 C.3     1  UNL1        0.0609
     32 C         142.9409  141.9536  167.2338 C.3     1  UNL1        0.0759
     33 O         144.6728  142.6620  163.7340 O.3     1  UNL1       -0.4790
     34 C         143.8729  143.0283  162.5191 C.ar    1  UNL1        0.1393
     35 C         144.3152  142.5657  161.1624 C.ar    1  UNL1        0.0378
     36 C         143.5154  142.9321  159.9475 C.ar    1  UNL1        0.0154
     37 C         142.2733  143.7610  160.0892 C.ar    1  UNL1        0.0684
     38 CL        141.4735  144.1274  158.8743 Cl      1  UNL1       -0.0814
     39 C         141.8310  144.2236  161.4457 C.ar    1  UNL1        0.0712
     40 CL        140.5889  145.0525  161.5874 Cl      1  UNL1       -0.0813
     41 C         142.6308  143.8573  162.6607 C.ar    1  UNL1        0.0491
@<TRIPOS>BOND
     1    16    17    1
     2    17    18    2
     3    17    19    2
     4    17     5    1
     5     5     6    2
     6     6     7    1
     7     7     8    1
     8     8     9    2
     9     9     1    1
    10     1     2    2
    11     1     3   am
    12     3    22    1
    13    22    23    1
    14    23    24    1
    15    23    26    1
    16    26    27    1
    17    27    28    1
    18    28    29    1
    19    29    30    1
    20    30    33    1
    21    33    34    1
    22    34    35   ar
    23    35    36   ar
    24    36    37   ar
    25    37    38    1
    26    37    39   ar
    27    39    40    1
    28    39    41   ar
    29    30    31    1
    30    31    32    1
    31     9    10    1
    32    10    11    2
    33    11    12    1
    34    12    13    2
    35    12    14    1
    36    14    15    2
    37    15     5    1
    38    14     8    1
    39    32    27    1
    40    41    34   ar
    41    16    20    1
    42    16    21    1
    43     3     4    1
    44    24    25    1
