@<TRIPOS>MOLECULE
*****
 38 43 0 0 0
SMALL
GASTEIGER

@<TRIPOS>ATOM
      1 C         141.6694  142.6011  158.0392 C.3     1  UNL1        0.0666
      2 S         142.8725  142.1551  158.8161 S.3     1  UNL1       -0.0756
      3 C         142.4216  140.1617  161.3602 C.3     1  UNL1        0.1340
      4 N         142.8038  141.6104  161.4321 N.ar    1  UNL1       -0.2884
      5 C         143.0110  142.5267  160.2628 C.ar    1  UNL1        0.1932
      6 N         143.3812  143.8798  160.7939 N.ar    1  UNL1       -0.1221
      7 N         143.4027  143.7998  162.2916 N.ar    1  UNL1       -0.1282
      8 C         143.0458  142.3972  162.6862 C.ar    1  UNL1        0.1668
      9 C         142.9482  141.8735  164.0884 C.ar    1  UNL1        0.0360
     10 C         143.1616  142.7974  165.2506 C.ar    1  UNL1        0.0032
     11 C         143.0639  142.2736  166.6528 C.ar    1  UNL1        0.0047
     12 C         142.7528  140.8259  166.8927 C.ar    1  UNL1        0.0536
     13 C         142.5394  139.9020  165.7304 C.ar    1  UNL1        0.0047
     14 C         142.6371  140.4259  164.3282 C.ar    1  UNL1        0.0032
     15 C         142.6552  140.3022  168.2949 C.ar    1  UNL1        0.2299
     16 N         142.9415  138.8964  168.7329 N.ar    1  UNL1       -0.2065
     17 C         142.7174  138.8177  170.2139 C.ar    1  UNL1        0.1427
     18 C         142.2924  140.1747  170.6913 C.ar    1  UNL1        0.2021
     19 O         142.2540  141.0922  169.5052 O.2     1  UNL1       -0.4314
     20 C         140.2929  142.3603  158.5846 C.3     1  UNL1        0.0294
     21 C         139.4563  143.5165  159.0466 C.3     1  UNL1        0.0730
     22 N         139.7077  144.1346  160.3900 N.3     1  UNL1       -0.2726
     23 C         140.1437  145.5474  160.6429 C.3     1  UNL1        0.0721
     24 C         140.2726  145.7343  162.1256 C.3     1  UNL1        0.0190
     25 C         139.9163  144.4371  162.7891 C.3     1  UNL1        0.0201
     26 C         140.1290  144.9162  164.1945 C.3     1  UNL1        0.0061
     27 C         139.6929  143.5034  163.9417 C.3     1  UNL1        0.0237
     28 C         139.5671  143.4484  161.7164 C.3     1  UNL1        0.0724
     29 C         139.3122  142.1487  164.4611 C.ar    1  UNL1       -0.0225
     30 C         139.4508  141.8396  165.9223 C.ar    1  UNL1       -0.0043
     31 C         139.0702  140.4849  166.4418 C.ar    1  UNL1        0.0035
     32 C         138.5509  139.4393  165.4999 C.ar    1  UNL1        0.0714
     33 C         138.4123  139.7484  164.0386 C.ar    1  UNL1        0.0035
     34 C         138.7930  141.1031  163.5192 C.ar    1  UNL1       -0.0043
     35 C         138.1702  138.0846  166.0193 C.3     1  UNL1        0.4186
     36 F         137.7895  136.7298  166.5388 F       1  UNL1       -0.1659
     37 F         137.3020  138.7275  167.0599 F       1  UNL1       -0.1659
     38 F         139.0384  137.4416  164.9788 F       1  UNL1       -0.1659
@<TRIPOS>BOND
     1     3     4    1
     2     4     5   ar
     3     5     2    1
     4     2     1    1
     5     1    20    1
     6    20    21    1
     7    21    22    1
     8    22    23    1
     9    23    24    1
    10    25    24    1
    11    25    26    1
    12    26    27    1
    13    27    29    1
    14    29    30   ar
    15    30    31   ar
    16    31    32   ar
    17    32    35    1
    18    35    36    1
    19    35    37    1
    20    35    38    1
    21    32    33   ar
    22    33    34   ar
    23    25    28    1
    24     5     6   ar
    25     6     7   ar
    26     7     8   ar
    27     8     9    1
    28     9    10   ar
    29    10    11   ar
    30    11    12   ar
    31    12    15    1
    32    15    16   ar
    33    16    17   ar
    34    17    18   ar
    35    18    19   ar
    36    12    13   ar
    37    13    14   ar
    38     8     4   ar
    39    14     9   ar
    40    28    22    1
    41    19    15   ar
    42    27    25    1
    43    34    29   ar
@<TRIPOS>MOLECULE
*****
 38 43 0 0 0
SMALL
GASTEIGER

@<TRIPOS>ATOM
      1 C         141.4657  145.1261  159.2200 C.3     1  UNL1        0.0666
      2 S         140.3276  145.4123  160.1542 S.3     1  UNL1       -0.0756
      3 C         142.0107  144.9763  162.9158 C.3     1  UNL1        0.1340
      4 N         140.7658  144.2409  162.5166 N.ar    1  UNL1       -0.2884
      5 C         139.9922  144.4413  161.2472 C.ar    1  UNL1        0.1932
      6 N         138.8242  143.5002  161.2627 N.ar    1  UNL1       -0.1221
      7 N         138.8760  142.7182  162.5416 N.ar    1  UNL1       -0.1282
      8 C         140.0760  143.1759  163.3167 C.ar    1  UNL1        0.1668
      9 C         140.5099  142.6594  164.6564 C.ar    1  UNL1        0.0360
     10 C         139.9165  143.2324  165.9092 C.ar    1  UNL1        0.0032
     11 C         140.3504  142.7159  167.2490 C.ar    1  UNL1        0.0047
     12 C         141.3778  141.6263  167.3358 C.ar    1  UNL1        0.0536
     13 C         141.9712  141.0533  166.0830 C.ar    1  UNL1        0.0047
     14 C         141.5372  141.5699  164.7433 C.ar    1  UNL1        0.0032
     15 C         141.8117  141.1098  168.6756 C.ar    1  UNL1        0.2299
     16 N         141.2037  141.4703  169.9986 N.ar    1  UNL1       -0.2065
     17 C         141.9460  140.7254  171.0682 C.ar    1  UNL1        0.1427
     18 C         143.0128  139.9045  170.4063 C.ar    1  UNL1        0.2021
     19 O         142.9298  140.1421  168.9275 O.2     1  UNL1       -0.4314
     20 C         141.8708  143.7084  158.9436 C.3     1  UNL1        0.0294
     21 C         142.8463  143.0169  159.8491 C.3     1  UNL1        0.0730
     22 N         142.9798  141.5235  159.8072 N.3     1  UNL1       -0.2726
     23 C         143.7977  140.7386  158.8248 C.3     1  UNL1        0.0721
     24 C         143.6421  139.2827  159.1508 C.3     1  UNL1        0.0190
     25 C         142.7282  139.1678  160.3347 C.3     1  UNL1        0.0201
     26 C         142.7653  137.6706  160.4168 C.3     1  UNL1        0.0061
     27 C         141.9475  138.4554  161.3991 C.3     1  UNL1        0.0237
     28 C         142.3188  140.5527  160.7404 C.3     1  UNL1        0.0724
     29 C         141.0246  138.4973  162.5809 C.ar    1  UNL1       -0.0225
     30 C         139.6929  139.1785  162.4687 C.ar    1  UNL1       -0.0043
     31 C         138.7700  139.2204  163.6504 C.ar    1  UNL1        0.0035
     32 C         139.1788  138.5810  164.9443 C.ar    1  UNL1        0.0714
     33 C         140.5105  137.8998  165.0564 C.ar    1  UNL1        0.0035
     34 C         141.4334  137.8579  163.8747 C.ar    1  UNL1       -0.0043
     35 C         138.2559  138.6229  166.1260 C.3     1  UNL1        0.4186
     36 F         137.3330  138.6648  167.3078 F       1  UNL1       -0.1659
     37 F         138.0984  137.1329  166.0558 F       1  UNL1       -0.1659
     38 F         138.4134  140.1129  166.1962 F       1  UNL1       -0.1659
@<TRIPOS>BOND
     1     3     4    1
     2     4     5   ar
     3     5     2    1
     4     2     1    1
     5     1    20    1
     6    20    21    1
     7    21    22    1
     8    22    23    1
     9    23    24    1
    10    25    24    1
    11    25    26    1
    12    26    27    1
    13    27    29    1
    14    29    30   ar
    15    30    31   ar
    16    31    32   ar
    17    32    35    1
    18    35    36    1
    19    35    37    1
    20    35    38    1
    21    32    33   ar
    22    33    34   ar
    23    25    28    1
    24     5     6   ar
    25     6     7   ar
    26     7     8   ar
    27     8     9    1
    28     9    10   ar
    29    10    11   ar
    30    11    12   ar
    31    12    15    1
    32    15    16   ar
    33    16    17   ar
    34    17    18   ar
    35    18    19   ar
    36    12    13   ar
    37    13    14   ar
    38     8     4   ar
    39    14     9   ar
    40    28    22    1
    41    19    15   ar
    42    27    25    1
    43    34    29   ar
@<TRIPOS>MOLECULE
*****
 38 43 0 0 0
SMALL
GASTEIGER

@<TRIPOS>ATOM
      1 C         143.0095  140.4235  158.2642 C.3     1  UNL1        0.0666
      2 S         143.6639  139.5765  159.3151 S.3     1  UNL1       -0.0756
      3 C         144.4077  141.2554  162.0128 C.3     1  UNL1        0.1340
      4 N         143.3595  140.1884  161.8992 N.ar    1  UNL1       -0.2884
      5 C         143.0176  139.4167  160.6592 C.ar    1  UNL1        0.1932
      6 N         141.9160  138.4572  160.9993 N.ar    1  UNL1       -0.1221
      7 N         141.5770  138.6358  162.4496 N.ar    1  UNL1       -0.1282
      8 C         142.4691  139.7058  163.0058 C.ar    1  UNL1        0.1668
      9 C         142.4706  140.2054  164.4202 C.ar    1  UNL1        0.0360
     10 C         142.2695  139.2453  165.5549 C.ar    1  UNL1        0.0032
     11 C         142.2710  139.7449  166.9693 C.ar    1  UNL1        0.0047
     12 C         142.4736  141.2047  167.2488 C.ar    1  UNL1        0.0536
     13 C         142.6747  142.1648  166.1140 C.ar    1  UNL1        0.0047
     14 C         142.6732  141.6651  164.6996 C.ar    1  UNL1        0.0032
     15 C         142.4751  141.7043  168.6631 C.ar    1  UNL1        0.2299
     16 N         141.6312  141.1767  169.7854 N.ar    1  UNL1       -0.2065
     17 C         141.9552  141.9655  171.0194 C.ar    1  UNL1        0.1427
     18 C         142.9993  142.9807  170.6598 C.ar    1  UNL1        0.2021
     19 O         143.3206  142.8192  169.2035 O.2     1  UNL1       -0.4314
     20 C         142.0186  141.4776  158.6604 C.3     1  UNL1        0.0294
     21 C         142.4893  142.7387  159.3223 C.3     1  UNL1        0.0730
     22 N         141.5394  143.5491  160.1536 N.3     1  UNL1       -0.2726
     23 C         141.2437  145.0097  159.9828 C.3     1  UNL1        0.0721
     24 C         140.2400  145.4044  161.0253 C.3     1  UNL1        0.0190
     25 C         139.9154  144.1877  161.8404 C.3     1  UNL1        0.0201
     26 C         138.9368  144.8664  162.7524 C.3     1  UNL1        0.0061
     27 C         139.2326  143.4059  162.9232 C.3     1  UNL1        0.0237
     28 C         140.7185  143.0411  161.3017 C.3     1  UNL1        0.0724
     29 C         139.0091  142.1112  163.6469 C.ar    1  UNL1       -0.0225
     30 C         139.1363  142.0552  165.1405 C.ar    1  UNL1       -0.0043
     31 C         138.9128  140.7605  165.8643 C.ar    1  UNL1        0.0035
     32 C         138.5621  139.5218  165.0945 C.ar    1  UNL1        0.0714
     33 C         138.4349  139.5778  163.6009 C.ar    1  UNL1        0.0035
     34 C         138.6584  140.8725  162.8771 C.ar    1  UNL1       -0.0043
     35 C         138.3387  138.2271  165.8182 C.3     1  UNL1        0.4186
     36 F         138.1151  136.9324  166.5420 F       1  UNL1       -0.1659
     37 F         139.3286  137.5519  164.9160 F       1  UNL1       -0.1659
     38 F         137.3488  138.9024  166.7205 F       1  UNL1       -0.1659
@<TRIPOS>BOND
     1     3     4    1
     2     4     5   ar
     3     5     2    1
     4     2     1    1
     5     1    20    1
     6    20    21    1
     7    21    22    1
     8    22    23    1
     9    23    24    1
    10    25    24    1
    11    25    26    1
    12    26    27    1
    13    27    29    1
    14    29    30   ar
    15    30    31   ar
    16    31    32   ar
    17    32    35    1
    18    35    36    1
    19    35    37    1
    20    35    38    1
    21    32    33   ar
    22    33    34   ar
    23    25    28    1
    24     5     6   ar
    25     6     7   ar
    26     7     8   ar
    27     8     9    1
    28     9    10   ar
    29    10    11   ar
    30    11    12   ar
    31    12    15    1
    32    15    16   ar
    33    16    17   ar
    34    17    18   ar
    35    18    19   ar
    36    12    13   ar
    37    13    14   ar
    38     8     4   ar
    39    14     9   ar
    40    28    22    1
    41    19    15   ar
    42    27    25    1
    43    34    29   ar
@<TRIPOS>MOLECULE
*****
 38 43 0 0 0
SMALL
GASTEIGER

@<TRIPOS>ATOM
      1 C         140.2003  144.3420  158.4427 C.3     1  UNL1        0.0666
      2 S         140.3484  145.1745  159.6817 S.3     1  UNL1       -0.0756
      3 C         139.0883  144.0402  162.4701 C.3     1  UNL1        0.1340
      4 N         140.5473  144.1260  162.1324 N.ar    1  UNL1       -0.2884
      5 C         141.1265  144.6474  160.8507 C.ar    1  UNL1        0.1932
      6 N         142.6204  144.5490  160.9433 N.ar    1  UNL1       -0.1221
      7 N         142.9645  143.9669  162.2822 N.ar    1  UNL1       -0.1282
      8 C         141.6833  143.7055  163.0172 C.ar    1  UNL1        0.1668
      9 C         141.5597  143.1253  164.3950 C.ar    1  UNL1        0.0360
     10 C         142.7854  142.6683  165.1290 C.ar    1  UNL1        0.0032
     11 C         142.6619  142.0881  166.5067 C.ar    1  UNL1        0.0047
     12 C         141.3125  141.9651  167.1504 C.ar    1  UNL1        0.0536
     13 C         140.0868  142.4222  166.4164 C.ar    1  UNL1        0.0047
     14 C         140.2105  143.0023  165.0386 C.ar    1  UNL1        0.0032
     15 C         141.1890  141.3850  168.5282 C.ar    1  UNL1        0.2299
     16 N         140.6446  140.0293  168.8684 N.ar    1  UNL1       -0.2065
     17 C         140.7073  139.8651  170.3580 C.ar    1  UNL1        0.1427
     18 C         141.2904  141.1194  170.9385 C.ar    1  UNL1        0.2021
     19 O         141.5881  142.0587  169.8075 O.2     1  UNL1       -0.4314
     20 C         139.5074  143.0133  158.5102 C.3     1  UNL1        0.0294
     21 C         140.2821  141.7506  158.2752 C.3     1  UNL1        0.0730
     22 N         141.4540  141.4159  159.1496 N.3     1  UNL1       -0.2726
     23 C         142.8998  141.5981  158.7941 C.3     1  UNL1        0.0721
     24 C         143.7252  141.1351  159.9579 C.3     1  UNL1        0.0190
     25 C         142.7895  140.6667  161.0326 C.3     1  UNL1        0.0201
     26 C         143.8571  140.2849  162.0146 C.3     1  UNL1        0.0061
     27 C         142.4113  140.1027  162.3701 C.3     1  UNL1        0.0237
     28 C         141.3858  140.8403  160.5331 C.3     1  UNL1        0.0724
     29 C         141.3583  139.6718  163.3476 C.ar    1  UNL1       -0.0225
     30 C         141.7542  139.0009  164.6294 C.ar    1  UNL1       -0.0043
     31 C         140.7011  138.5701  165.6069 C.ar    1  UNL1        0.0035
     32 C         139.2521  138.8102  165.3024 C.ar    1  UNL1        0.0714
     33 C         138.8562  139.4811  164.0206 C.ar    1  UNL1        0.0035
     34 C         139.9092  139.9119  163.0431 C.ar    1  UNL1       -0.0043
     35 C         138.1990  138.3793  166.2799 C.3     1  UNL1        0.4186
     36 F         137.1459  137.9485  167.2574 F       1  UNL1       -0.1659
     37 F         138.2849  136.9771  165.7543 F       1  UNL1       -0.1659
     38 F         138.1132  139.7816  166.8054 F       1  UNL1       -0.1659
@<TRIPOS>BOND
     1     3     4    1
     2     4     5   ar
     3     5     2    1
     4     2     1    1
     5     1    20    1
     6    20    21    1
     7    21    22    1
     8    22    23    1
     9    23    24    1
    10    25    24    1
    11    25    26    1
    12    26    27    1
    13    27    29    1
    14    29    30   ar
    15    30    31   ar
    16    31    32   ar
    17    32    35    1
    18    35    36    1
    19    35    37    1
    20    35    38    1
    21    32    33   ar
    22    33    34   ar
    23    25    28    1
    24     5     6   ar
    25     6     7   ar
    26     7     8   ar
    27     8     9    1
    28     9    10   ar
    29    10    11   ar
    30    11    12   ar
    31    12    15    1
    32    15    16   ar
    33    16    17   ar
    34    17    18   ar
    35    18    19   ar
    36    12    13   ar
    37    13    14   ar
    38     8     4   ar
    39    14     9   ar
    40    28    22    1
    41    19    15   ar
    42    27    25    1
    43    34    29   ar
@<TRIPOS>MOLECULE
*****
 38 43 0 0 0
SMALL
GASTEIGER

@<TRIPOS>ATOM
      1 C         139.1758  140.3063  158.7070 C.3     1  UNL1        0.0666
      2 S         137.9953  140.6178  159.5783 S.3     1  UNL1       -0.0756
      3 C         139.1911  139.4271  162.3715 C.3     1  UNL1        0.1340
      4 N         138.7356  140.8370  162.1374 N.ar    1  UNL1       -0.2884
      5 C         138.1860  141.3843  160.8536 C.ar    1  UNL1        0.1932
      6 N         137.8604  142.8327  161.0688 N.ar    1  UNL1       -0.1221
      7 N         138.2089  143.1805  162.4857 N.ar    1  UNL1       -0.1282
      8 C         138.7498  141.9471  163.1462 C.ar    1  UNL1        0.1668
      9 C         139.2220  141.8423  164.5661 C.ar    1  UNL1        0.0360
     10 C         139.3719  140.4954  165.2091 C.ar    1  UNL1        0.0032
     11 C         139.8440  140.3906  166.6290 C.ar    1  UNL1        0.0047
     12 C         140.1663  141.6328  167.4058 C.ar    1  UNL1        0.0536
     13 C         140.0164  142.9796  166.7628 C.ar    1  UNL1        0.0047
     14 C         139.5443  143.0843  165.3428 C.ar    1  UNL1        0.0032
     15 C         140.6385  141.5279  168.8257 C.ar    1  UNL1        0.2299
     16 N         140.1653  142.3659  169.9763 N.ar    1  UNL1       -0.2065
     17 C         140.9011  141.9226  171.2060 C.ar    1  UNL1        0.1427
     18 C         141.8290  140.8107  170.8154 C.ar    1  UNL1        0.2021
     19 O         141.6667  140.5667  169.3442 O.2     1  UNL1       -0.4314
     20 C         139.7585  141.3704  157.8248 C.3     1  UNL1        0.0294
     21 C         141.0968  141.9646  158.1500 C.3     1  UNL1        0.0730
     22 N         141.2233  142.9655  159.2601 N.3     1  UNL1       -0.2726
     23 C         140.9328  144.4338  159.1607 C.3     1  UNL1        0.0721
     24 C         141.1925  145.0495  160.5036 C.3     1  UNL1        0.0190
     25 C         141.6435  143.9619  161.4329 C.3     1  UNL1        0.0201
     26 C         141.8164  144.8436  162.6340 C.3     1  UNL1        0.0061
     27 C         142.1069  143.3753  162.7334 C.3     1  UNL1        0.0237
     28 C         141.6625  142.6738  160.6644 C.3     1  UNL1        0.0724
     29 C         142.5422  142.1890  163.5416 C.ar    1  UNL1       -0.0225
     30 C         142.4351  140.8085  162.9648 C.ar    1  UNL1       -0.0043
     31 C         142.8704  139.6221  163.7729 C.ar    1  UNL1        0.0035
     32 C         143.4128  139.8164  165.1579 C.ar    1  UNL1        0.0714
     33 C         143.5198  141.1969  165.7347 C.ar    1  UNL1        0.0035
     34 C         143.0846  142.3832  164.9265 C.ar    1  UNL1       -0.0043
     35 C         143.8480  138.6301  165.9661 C.3     1  UNL1        0.4186
     36 F         144.2833  137.4437  166.7743 F       1  UNL1       -0.1659
     37 F         145.1976  138.6805  165.3133 F       1  UNL1       -0.1659
     38 F         142.4985  138.5796  166.6188 F       1  UNL1       -0.1659
@<TRIPOS>BOND
     1     3     4    1
     2     4     5   ar
     3     5     2    1
     4     2     1    1
     5     1    20    1
     6    20    21    1
     7    21    22    1
     8    22    23    1
     9    23    24    1
    10    25    24    1
    11    25    26    1
    12    26    27    1
    13    27    29    1
    14    29    30   ar
    15    30    31   ar
    16    31    32   ar
    17    32    35    1
    18    35    36    1
    19    35    37    1
    20    35    38    1
    21    32    33   ar
    22    33    34   ar
    23    25    28    1
    24     5     6   ar
    25     6     7   ar
    26     7     8   ar
    27     8     9    1
    28     9    10   ar
    29    10    11   ar
    30    11    12   ar
    31    12    15    1
    32    15    16   ar
    33    16    17   ar
    34    17    18   ar
    35    18    19   ar
    36    12    13   ar
    37    13    14   ar
    38     8     4   ar
    39    14     9   ar
    40    28    22    1
    41    19    15   ar
    42    27    25    1
    43    34    29   ar
@<TRIPOS>MOLECULE
*****
 38 43 0 0 0
SMALL
GASTEIGER

@<TRIPOS>ATOM
      1 C         140.7561  142.4158  157.9204 C.3     1  UNL1        0.0666
      2 S         140.1983  143.3593  158.9444 S.3     1  UNL1       -0.0756
      3 C         139.7684  141.8093  161.7838 C.3     1  UNL1        0.1340
      4 N         140.7556  142.9072  161.5193 N.ar    1  UNL1       -0.2884
      5 C         140.9532  143.6197  160.2142 C.ar    1  UNL1        0.1932
      6 N         142.0383  144.6382  160.4017 N.ar    1  UNL1       -0.1221
      7 N         142.5113  144.5553  161.8228 N.ar    1  UNL1       -0.1282
      8 C         141.7186  143.4854  162.5135 C.ar    1  UNL1        0.1668
      9 C         141.8634  143.0673  163.9468 C.ar    1  UNL1        0.0360
     10 C         140.6823  143.1300  164.8693 C.ar    1  UNL1        0.0032
     11 C         140.8271  142.7118  166.3026 C.ar    1  UNL1        0.0047
     12 C         142.1531  142.2310  166.8132 C.ar    1  UNL1        0.0536
     13 C         143.3341  142.1684  165.8907 C.ar    1  UNL1        0.0047
     14 C         143.1893  142.5865  164.4574 C.ar    1  UNL1        0.0032
     15 C         142.2978  141.8129  168.2465 C.ar    1  UNL1        0.2299
     16 N         142.1203  142.6971  169.4451 N.ar    1  UNL1       -0.2065
     17 C         142.3583  141.8679  170.6721 C.ar    1  UNL1        0.1427
     18 C         142.6830  140.4711  170.2319 C.ar    1  UNL1        0.2021
     19 O         142.6456  140.4372  168.7327 O.2     1  UNL1       -0.4314
     20 C         139.8398  141.4927  157.1732 C.3     1  UNL1        0.0294
     21 C         139.7669  140.0423  157.5487 C.3     1  UNL1        0.0730
     22 N         140.9027  139.4013  158.2896 N.3     1  UNL1       -0.2726
     23 C         142.2191  138.9894  157.7002 C.3     1  UNL1        0.0721
     24 C         143.0515  138.3933  158.7964 C.3     1  UNL1        0.0190
     25 C         142.2496  138.4368  160.0633 C.3     1  UNL1        0.0201
     26 C         143.2954  137.8039  160.9327 C.3     1  UNL1        0.0061
     27 C         141.9790  138.2158  161.5221 C.3     1  UNL1        0.0237
     28 C         140.9215  139.0598  159.7501 C.3     1  UNL1        0.0724
     29 C         141.0627  138.3260  162.7046 C.ar    1  UNL1       -0.0225
     30 C         141.4895  139.1037  163.9142 C.ar    1  UNL1       -0.0043
     31 C         140.5732  139.2139  165.0966 C.ar    1  UNL1        0.0035
     32 C         139.2302  138.5465  165.0695 C.ar    1  UNL1        0.0714
     33 C         138.8034  137.7688  163.8599 C.ar    1  UNL1        0.0035
     34 C         139.7197  137.6585  162.6775 C.ar    1  UNL1       -0.0043
     35 C         138.3139  138.6567  166.2520 C.3     1  UNL1        0.4186
     36 F         137.3976  138.7669  167.4346 F       1  UNL1       -0.1659
     37 F         138.5888  140.1293  166.3277 F       1  UNL1       -0.1659
     38 F         138.0391  137.1841  166.1763 F       1  UNL1       -0.1659
@<TRIPOS>BOND
     1     3     4    1
     2     4     5   ar
     3     5     2    1
     4     2     1    1
     5     1    20    1
     6    20    21    1
     7    21    22    1
     8    22    23    1
     9    23    24    1
    10    25    24    1
    11    25    26    1
    12    26    27    1
    13    27    29    1
    14    29    30   ar
    15    30    31   ar
    16    31    32   ar
    17    32    35    1
    18    35    36    1
    19    35    37    1
    20    35    38    1
    21    32    33   ar
    22    33    34   ar
    23    25    28    1
    24     5     6   ar
    25     6     7   ar
    26     7     8   ar
    27     8     9    1
    28     9    10   ar
    29    10    11   ar
    30    11    12   ar
    31    12    15    1
    32    15    16   ar
    33    16    17   ar
    34    17    18   ar
    35    18    19   ar
    36    12    13   ar
    37    13    14   ar
    38     8     4   ar
    39    14     9   ar
    40    28    22    1
    41    19    15   ar
    42    27    25    1
    43    34    29   ar
@<TRIPOS>MOLECULE
*****
 38 43 0 0 0
SMALL
GASTEIGER

@<TRIPOS>ATOM
      1 C         140.8767  143.6558  159.1453 C.3     1  UNL1        0.0666
      2 S         139.7436  142.7284  159.4710 S.3     1  UNL1       -0.0756
      3 C         141.4005  141.7793  162.1174 C.3     1  UNL1        0.1340
      4 N         139.9689  142.2259  162.0867 N.ar    1  UNL1       -0.2884
      5 C         139.2073  142.6622  160.8703 C.ar    1  UNL1        0.1932
      6 N         137.8152  143.0206  161.2988 N.ar    1  UNL1       -0.1221
      7 N         137.7164  142.8059  162.7800 N.ar    1  UNL1       -0.1282
      8 C         139.0474  142.3147  163.2671 C.ar    1  UNL1        0.1668
      9 C         139.3959  141.9725  164.6853 C.ar    1  UNL1        0.0360
     10 C         139.1167  140.5973  165.2153 C.ar    1  UNL1        0.0032
     11 C         139.4651  140.2551  166.6336 C.ar    1  UNL1        0.0047
     12 C         140.0927  141.2881  167.5218 C.ar    1  UNL1        0.0536
     13 C         140.3719  142.6633  166.9919 C.ar    1  UNL1        0.0047
     14 C         140.0235  143.0055  165.5736 C.ar    1  UNL1        0.0032
     15 C         140.4411  140.9459  168.9401 C.ar    1  UNL1        0.2299
     16 N         139.7891  139.8853  169.7768 N.ar    1  UNL1       -0.2065
     17 C         140.4477  139.8881  171.1245 C.ar    1  UNL1        0.1427
     18 C         141.5068  140.9503  171.1207 C.ar    1  UNL1        0.2021
     19 O         141.5027  141.6041  169.7706 O.2     1  UNL1       -0.4314
     20 C         141.6860  143.4428  157.9004 C.3     1  UNL1        0.0294
     21 C         142.9611  142.6551  157.9603 C.3     1  UNL1        0.0730
     22 N         142.9158  141.1562  157.9957 N.3     1  UNL1       -0.2726
     23 C         142.8549  140.2476  156.8038 C.3     1  UNL1        0.0721
     24 C         142.8248  138.8326  157.3008 C.3     1  UNL1        0.0190
     25 C         142.8672  138.8667  158.7998 C.3     1  UNL1        0.0201
     26 C         142.8265  137.3797  158.9918 C.3     1  UNL1        0.0061
     27 C         142.8875  138.2883  160.1837 C.3     1  UNL1        0.0237
     28 C         142.9234  140.3028  159.2293 C.3     1  UNL1        0.0724
     29 C         142.9343  138.4790  161.6708 C.ar    1  UNL1       -0.0225
     30 C         141.7722  138.0535  162.5185 C.ar    1  UNL1       -0.0043
     31 C         141.8191  138.2442  164.0055 C.ar    1  UNL1        0.0035
     32 C         143.0281  138.8603  164.6449 C.ar    1  UNL1        0.0714
     33 C         144.1902  139.2857  163.7972 C.ar    1  UNL1        0.0035
     34 C         144.1433  139.0951  162.3101 C.ar    1  UNL1       -0.0043
     35 C         143.0749  139.0510  166.1320 C.3     1  UNL1        0.4186
     36 F         143.1218  139.2416  167.6192 F       1  UNL1       -0.1659
     37 F         142.7555  140.5059  165.9555 F       1  UNL1       -0.1659
     38 F         143.3944  137.5961  166.3085 F       1  UNL1       -0.1659
@<TRIPOS>BOND
     1     3     4    1
     2     4     5   ar
     3     5     2    1
     4     2     1    1
     5     1    20    1
     6    20    21    1
     7    21    22    1
     8    22    23    1
     9    23    24    1
    10    25    24    1
    11    25    26    1
    12    26    27    1
    13    27    29    1
    14    29    30   ar
    15    30    31   ar
    16    31    32   ar
    17    32    35    1
    18    35    36    1
    19    35    37    1
    20    35    38    1
    21    32    33   ar
    22    33    34   ar
    23    25    28    1
    24     5     6   ar
    25     6     7   ar
    26     7     8   ar
    27     8     9    1
    28     9    10   ar
    29    10    11   ar
    30    11    12   ar
    31    12    15    1
    32    15    16   ar
    33    16    17   ar
    34    17    18   ar
    35    18    19   ar
    36    12    13   ar
    37    13    14   ar
    38     8     4   ar
    39    14     9   ar
    40    28    22    1
    41    19    15   ar
    42    27    25    1
    43    34    29   ar
@<TRIPOS>MOLECULE
*****
 38 43 0 0 0
SMALL
GASTEIGER

@<TRIPOS>ATOM
      1 C         140.6990  144.9535  157.1444 C.3     1  UNL1        0.0666
      2 S         141.5186  145.2282  158.3702 S.3     1  UNL1       -0.0756
      3 C         142.3329  143.3729  160.9285 C.3     1  UNL1        0.1340
      4 N         141.2389  144.3986  160.8958 N.ar    1  UNL1       -0.2884
      5 C         140.8646  145.2514  159.7200 C.ar    1  UNL1        0.1932
      6 N         139.7215  146.1315  160.1308 N.ar    1  UNL1       -0.1221
      7 N         139.3893  145.8227  161.5605 N.ar    1  UNL1       -0.1282
      8 C         140.3271  144.7517  162.0335 C.ar    1  UNL1        0.1668
      9 C         140.3492  144.1410  163.4033 C.ar    1  UNL1        0.0360
     10 C         141.6553  143.7525  164.0303 C.ar    1  UNL1        0.0032
     11 C         141.6774  143.1418  165.4002 C.ar    1  UNL1        0.0047
     12 C         140.3933  142.9197  166.1431 C.ar    1  UNL1        0.0536
     13 C         139.0872  143.3082  165.5161 C.ar    1  UNL1        0.0047
     14 C         139.0652  143.9189  164.1462 C.ar    1  UNL1        0.0032
     15 C         140.4154  142.3090  167.5130 C.ar    1  UNL1        0.2299
     16 N         140.5067  143.0567  168.8102 N.ar    1  UNL1       -0.2065
     17 C         140.4978  142.0533  169.9251 C.ar    1  UNL1        0.1427
     18 C         140.4010  140.6854  169.3170 C.ar    1  UNL1        0.2021
     19 O         140.3500  140.8435  167.8262 O.2     1  UNL1       -0.4314
     20 C         140.4140  143.5391  156.7342 C.3     1  UNL1        0.0294
     21 C         139.9777  142.5343  157.7588 C.3     1  UNL1        0.0730
     22 N         140.8929  141.4099  158.1439 N.3     1  UNL1       -0.2726
     23 C         142.0392  140.8878  157.3295 C.3     1  UNL1        0.0721
     24 C         142.6772  139.7655  158.0934 C.3     1  UNL1        0.0190
     25 C         141.9251  139.5940  159.3798 C.3     1  UNL1        0.0201
     26 C         142.7567  138.4579  159.8973 C.3     1  UNL1        0.0061
     27 C         141.6103  138.9800  160.7117 C.3     1  UNL1        0.0237
     28 C         140.8223  140.6103  159.4111 C.3     1  UNL1        0.0724
     29 C         140.7667  138.9270  161.9509 C.ar    1  UNL1       -0.0225
     30 C         140.9786  139.9299  163.0459 C.ar    1  UNL1       -0.0043
     31 C         140.1350  139.8769  164.2851 C.ar    1  UNL1        0.0035
     32 C         139.0795  138.8209  164.4291 C.ar    1  UNL1        0.0714
     33 C         138.8676  137.8179  163.3341 C.ar    1  UNL1        0.0035
     34 C         139.7112  137.8710  162.0949 C.ar    1  UNL1       -0.0043
     35 C         138.2359  138.7679  165.6683 C.3     1  UNL1        0.4186
     36 F         137.3923  138.7148  166.9075 F       1  UNL1       -0.1659
     37 F         137.9166  140.2252  165.5133 F       1  UNL1       -0.1659
     38 F         138.5552  137.3105  165.8233 F       1  UNL1       -0.1659
@<TRIPOS>BOND
     1     3     4    1
     2     4     5   ar
     3     5     2    1
     4     2     1    1
     5     1    20    1
     6    20    21    1
     7    21    22    1
     8    22    23    1
     9    23    24    1
    10    25    24    1
    11    25    26    1
    12    26    27    1
    13    27    29    1
    14    29    30   ar
    15    30    31   ar
    16    31    32   ar
    17    32    35    1
    18    35    36    1
    19    35    37    1
    20    35    38    1
    21    32    33   ar
    22    33    34   ar
    23    25    28    1
    24     5     6   ar
    25     6     7   ar
    26     7     8   ar
    27     8     9    1
    28     9    10   ar
    29    10    11   ar
    30    11    12   ar
    31    12    15    1
    32    15    16   ar
    33    16    17   ar
    34    17    18   ar
    35    18    19   ar
    36    12    13   ar
    37    13    14   ar
    38     8     4   ar
    39    14     9   ar
    40    28    22    1
    41    19    15   ar
    42    27    25    1
    43    34    29   ar
@<TRIPOS>MOLECULE
*****
 38 43 0 0 0
SMALL
GASTEIGER

@<TRIPOS>ATOM
      1 C         143.6820  142.5939  165.6819 C.3     1  UNL1        0.0666
      2 S         143.2809  143.3565  164.4542 S.3     1  UNL1       -0.0756
      3 C         141.6976  140.9005  163.0012 C.3     1  UNL1        0.1340
      4 N         142.8502  141.6692  162.4262 N.ar    1  UNL1       -0.2884
      5 C         143.5779  142.7981  163.0940 C.ar    1  UNL1        0.1932
      6 N         144.6549  143.2705  162.1630 N.ar    1  UNL1       -0.1221
      7 N         144.5928  142.4336  160.9197 N.ar    1  UNL1       -0.1282
      8 C         143.4774  141.4439  161.0823 C.ar    1  UNL1        0.1668
      9 C         143.0621  140.4105  160.0776 C.ar    1  UNL1        0.0360
     10 C         142.3959  140.8307  158.8010 C.ar    1  UNL1        0.0032
     11 C         141.9807  139.7972  157.7962 C.ar    1  UNL1        0.0047
     12 C         142.2317  138.3435  158.0682 C.ar    1  UNL1        0.0536
     13 C         142.8979  137.9233  159.3447 C.ar    1  UNL1        0.0047
     14 C         143.3131  138.9569  160.3494 C.ar    1  UNL1        0.0032
     15 C         141.8165  137.3100  157.0634 C.ar    1  UNL1        0.2299
     16 N         142.4870  135.9889  156.8290 N.ar    1  UNL1       -0.2065
     17 C         141.7427  135.2786  155.7374 C.ar    1  UNL1        0.1427
     18 C         140.6123  136.1608  155.2971 C.ar    1  UNL1        0.2021
     19 O         140.6579  137.4163  156.1167 O.2     1  UNL1       -0.4314
     20 C         142.7443  142.5048  166.8493 C.3     1  UNL1        0.0294
     21 C         142.5625  141.2005  167.5675 C.3     1  UNL1        0.0730
     22 N         141.2017  140.5752  167.6538 N.3     1  UNL1       -0.2726
     23 C         140.4573  140.2543  168.9159 C.3     1  UNL1        0.0721
     24 C         139.1421  139.6418  168.5352 C.3     1  UNL1        0.0190
     25 C         139.0736  139.5842  167.0379 C.3     1  UNL1        0.0201
     26 C         137.7132  138.9563  166.9672 C.3     1  UNL1        0.0061
     27 C         138.4576  139.2772  165.7051 C.3     1  UNL1        0.0237
     28 C         140.3465  140.1611  166.4931 C.3     1  UNL1        0.0724
     29 C         138.5317  139.2853  164.2070 C.ar    1  UNL1       -0.0225
     30 C         139.1632  138.1345  163.4811 C.ar    1  UNL1       -0.0043
     31 C         139.2374  138.1426  161.9829 C.ar    1  UNL1        0.0035
     32 C         138.6800  139.3015  161.2107 C.ar    1  UNL1        0.0714
     33 C         138.0485  140.4523  161.9366 C.ar    1  UNL1        0.0035
     34 C         137.9744  140.4442  163.4347 C.ar    1  UNL1       -0.0043
     35 C         138.7542  139.3095  159.7126 C.3     1  UNL1        0.4186
     36 F         138.8283  139.3176  158.2144 F       1  UNL1       -0.1659
     37 F         139.5897  138.0643  159.7472 F       1  UNL1       -0.1659
     38 F         137.9186  140.5548  159.6779 F       1  UNL1       -0.1659
@<TRIPOS>BOND
     1     3     4    1
     2     4     5   ar
     3     5     2    1
     4     2     1    1
     5     1    20    1
     6    20    21    1
     7    21    22    1
     8    22    23    1
     9    23    24    1
    10    25    24    1
    11    25    26    1
    12    26    27    1
    13    27    29    1
    14    29    30   ar
    15    30    31   ar
    16    31    32   ar
    17    32    35    1
    18    35    36    1
    19    35    37    1
    20    35    38    1
    21    32    33   ar
    22    33    34   ar
    23    25    28    1
    24     5     6   ar
    25     6     7   ar
    26     7     8   ar
    27     8     9    1
    28     9    10   ar
    29    10    11   ar
    30    11    12   ar
    31    12    15    1
    32    15    16   ar
    33    16    17   ar
    34    17    18   ar
    35    18    19   ar
    36    12    13   ar
    37    13    14   ar
    38     8     4   ar
    39    14     9   ar
    40    28    22    1
    41    19    15   ar
    42    27    25    1
    43    34    29   ar
