@<TRIPOS>MOLECULE
*****
 17 19 0 0 0
SMALL
GASTEIGER

@<TRIPOS>ATOM
      1 N         138.5912  140.5643  170.2160 N.pl3   1  UNL1       -0.3572
      2 C         139.6371  140.5332  169.1411 C.ar    1  UNL1        0.0400
      3 C         139.3840  139.7781  167.8701 C.ar    1  UNL1        0.0043
      4 C         140.4299  139.7470  166.7952 C.ar    1  UNL1        0.0561
      5 N         141.7287  140.4711  166.9915 N.ar    1  UNL1       -0.2499
      6 C         141.9818  141.2263  168.2626 C.ar    1  UNL1        0.0820
      7 C         143.2807  141.9504  168.4588 C.ar    1  UNL1        0.0191
      8 C         143.5338  142.7056  169.7299 C.ar    1  UNL1        0.0015
      9 C         142.4879  142.7366  170.8047 C.ar    1  UNL1        0.0001
     10 C         141.1891  142.0125  170.6085 C.ar    1  UNL1        0.0027
     11 C         140.9360  141.2574  169.3374 C.ar    1  UNL1        0.0303
     12 C         140.1767  138.9918  165.5241 C.3     1  UNL1        0.0455
     13 C         138.8779  138.2677  165.3279 C.3     1  UNL1        0.0066
     14 C         137.8320  138.2988  166.4027 C.3     1  UNL1        0.0052
     15 C         138.0851  139.0539  167.6738 C.3     1  UNL1        0.0288
     16 H         137.7387  140.0890  170.0872 H       1  UNL1        0.1423
     17 H         138.7573  141.0599  171.0502 H       1  UNL1        0.1423
@<TRIPOS>BOND
     1     1     2    1
     2     2     3   ar
     3     3     4   ar
     4     4     5   ar
     5     5     6   ar
     6     6     7   ar
     7     7     8   ar
     8     8     9   ar
     9     9    10   ar
    10    10    11   ar
    11     4    12    1
    12    12    13    1
    13    13    14    1
    14    14    15    1
    15    11     2   ar
    16    15     3    1
    17    11     6   ar
    18     1    16    1
    19     1    17    1
@<TRIPOS>MOLECULE
*****
 17 19 0 0 0
SMALL
GASTEIGER

@<TRIPOS>ATOM
      1 N         138.6335  140.6143  170.2485 N.pl3   1  UNL1       -0.3572
      2 C         139.6663  140.5683  169.1616 C.ar    1  UNL1        0.0400
      3 C         140.9764  141.2763  169.3415 C.ar    1  UNL1        0.0043
      4 C         142.0092  141.2303  168.2547 C.ar    1  UNL1        0.0561
      5 N         141.7319  140.4764  166.9880 N.ar    1  UNL1       -0.2499
      6 C         140.4218  139.7683  166.8080 C.ar    1  UNL1        0.0820
      7 C         140.1445  139.0144  165.5413 C.ar    1  UNL1        0.0191
      8 C         138.8344  138.3064  165.3614 C.ar    1  UNL1        0.0015
      9 C         137.8016  138.3524  166.4483 C.ar    1  UNL1        0.0001
     10 C         138.0789  139.1064  167.7150 C.ar    1  UNL1        0.0027
     11 C         139.3890  139.8143  167.8949 C.ar    1  UNL1        0.0303
     12 C         143.3194  141.9383  168.4346 C.3     1  UNL1        0.0455
     13 C         143.5966  142.6923  169.7013 C.3     1  UNL1        0.0066
     14 C         142.5638  142.7383  170.7882 C.3     1  UNL1        0.0052
     15 C         141.2538  142.0303  170.6083 C.3     1  UNL1        0.0288
     16 H         138.8155  141.1092  171.0799 H       1  UNL1        0.1423
     17 H         137.7737  140.1496  170.1304 H       1  UNL1        0.1423
@<TRIPOS>BOND
     1     1     2    1
     2     2     3   ar
     3     3     4   ar
     4     4     5   ar
     5     5     6   ar
     6     6     7   ar
     7     7     8   ar
     8     8     9   ar
     9     9    10   ar
    10    10    11   ar
    11     4    12    1
    12    12    13    1
    13    13    14    1
    14    14    15    1
    15    11     2   ar
    16    15     3    1
    17    11     6   ar
    18     1    16    1
    19     1    17    1
@<TRIPOS>MOLECULE
*****
 17 19 0 0 0
SMALL
GASTEIGER

@<TRIPOS>ATOM
      1 N         137.3504  140.3830  162.5702 N.pl3   1  UNL1       -0.3572
      2 C         138.4530  140.6501  163.5515 C.ar    1  UNL1        0.0400
      3 C         139.4307  139.5655  163.8945 C.ar    1  UNL1        0.0043
      4 C         140.5334  139.8325  164.8758 C.ar    1  UNL1        0.0561
      5 N         140.6583  141.1841  165.5141 N.ar    1  UNL1       -0.2499
      6 C         139.6805  142.2688  165.1711 C.ar    1  UNL1        0.0820
      7 C         139.8055  143.6204  165.8094 C.ar    1  UNL1        0.0191
      8 C         138.8278  144.7050  165.4664 C.ar    1  UNL1        0.0015
      9 C         137.7251  144.4380  164.4851 C.ar    1  UNL1        0.0001
     10 C         137.6002  143.0864  163.8468 C.ar    1  UNL1        0.0027
     11 C         138.5779  142.0018  164.1898 C.ar    1  UNL1        0.0303
     12 C         141.5111  138.7478  165.2188 C.3     1  UNL1        0.0455
     13 C         141.3862  137.3962  164.5805 C.3     1  UNL1        0.0066
     14 C         140.2836  137.1291  163.5992 C.3     1  UNL1        0.0052
     15 C         139.3059  138.2137  163.2562 C.3     1  UNL1        0.0288
     16 H         137.2684  139.4959  162.1513 H       1  UNL1        0.1423
     17 H         136.7087  141.0949  162.3451 H       1  UNL1        0.1423
@<TRIPOS>BOND
     1     1     2    1
     2     2     3   ar
     3     3     4   ar
     4     4     5   ar
     5     5     6   ar
     6     6     7   ar
     7     7     8   ar
     8     8     9   ar
     9     9    10   ar
    10    10    11   ar
    11     4    12    1
    12    12    13    1
    13    13    14    1
    14    14    15    1
    15    11     2   ar
    16    15     3    1
    17    11     6   ar
    18     1    16    1
    19     1    17    1
@<TRIPOS>MOLECULE
*****
 17 19 0 0 0
SMALL
GASTEIGER

@<TRIPOS>ATOM
      1 N         137.3704  140.3479  162.6262 N.pl3   1  UNL1       -0.3572
      2 C         138.4837  140.6156  163.5952 C.ar    1  UNL1        0.0400
      3 C         138.6078  141.9635  164.2413 C.ar    1  UNL1        0.0043
      4 C         139.7211  142.2312  165.2103 C.ar    1  UNL1        0.0561
      5 N         140.7103  141.1508  165.5331 N.ar    1  UNL1       -0.2499
      6 C         140.5863  139.8028  164.8870 C.ar    1  UNL1        0.0820
      7 C         141.5755  138.7224  165.2098 C.ar    1  UNL1        0.0191
      8 C         141.4514  137.3745  164.5637 C.ar    1  UNL1        0.0015
      9 C         140.3381  137.1068  163.5947 C.ar    1  UNL1        0.0001
     10 C         139.3489  138.1872  163.2719 C.ar    1  UNL1        0.0027
     11 C         139.4730  139.5351  163.9180 C.ar    1  UNL1        0.0303
     12 C         139.8452  143.5792  165.8564 C.3     1  UNL1        0.0455
     13 C         138.8560  144.6596  165.5336 C.3     1  UNL1        0.0066
     14 C         137.7426  144.3919  164.5646 C.3     1  UNL1        0.0052
     15 C         137.6186  143.0439  163.9185 C.3     1  UNL1        0.0288
     16 H         136.7211  141.0570  162.4143 H       1  UNL1        0.1423
     17 H         137.2890  139.4632  162.2021 H       1  UNL1        0.1423
@<TRIPOS>BOND
     1     1     2    1
     2     2     3   ar
     3     3     4   ar
     4     4     5   ar
     5     5     6   ar
     6     6     7   ar
     7     7     8   ar
     8     8     9   ar
     9     9    10   ar
    10    10    11   ar
    11     4    12    1
    12    12    13    1
    13    13    14    1
    14    14    15    1
    15    11     2   ar
    16    15     3    1
    17    11     6   ar
    18     1    16    1
    19     1    17    1
@<TRIPOS>MOLECULE
*****
 17 19 0 0 0
SMALL
GASTEIGER

@<TRIPOS>ATOM
      1 N         142.2355  137.6032  163.0701 N.pl3   1  UNL1       -0.3572
      2 C         141.9994  138.7297  164.0320 C.ar    1  UNL1        0.0400
      3 C         143.0096  139.8312  164.1595 C.ar    1  UNL1        0.0043
      4 C         142.7734  140.9578  165.1214 C.ar    1  UNL1        0.0561
      5 N         141.5272  140.9828  165.9557 N.ar    1  UNL1       -0.2499
      6 C         140.5170  139.8813  165.8282 C.ar    1  UNL1        0.0820
      7 C         139.2707  139.9064  166.6626 C.ar    1  UNL1        0.0191
      8 C         138.2606  138.8049  166.5350 C.ar    1  UNL1        0.0015
      9 C         138.4967  137.6783  165.5732 C.ar    1  UNL1        0.0001
     10 C         139.7429  137.6533  164.7388 C.ar    1  UNL1        0.0027
     11 C         140.7531  138.7548  164.8664 C.ar    1  UNL1        0.0303
     12 C         143.7837  142.0593  165.2489 C.3     1  UNL1        0.0455
     13 C         145.0299  142.0342  164.4145 C.3     1  UNL1        0.0066
     14 C         145.2660  140.9077  163.4527 C.3     1  UNL1        0.0052
     15 C         144.2559  139.8062  163.3252 C.3     1  UNL1        0.0288
     16 H         143.0535  137.5868  162.5225 H       1  UNL1        0.1423
     17 H         141.5725  136.8803  162.9865 H       1  UNL1        0.1423
@<TRIPOS>BOND
     1     1     2    1
     2     2     3   ar
     3     3     4   ar
     4     4     5   ar
     5     5     6   ar
     6     6     7   ar
     7     7     8   ar
     8     8     9   ar
     9     9    10   ar
    10    10    11   ar
    11     4    12    1
    12    12    13    1
    13    13    14    1
    14    14    15    1
    15    11     2   ar
    16    15     3    1
    17    11     6   ar
    18     1    16    1
    19     1    17    1
@<TRIPOS>MOLECULE
*****
 17 19 0 0 0
SMALL
GASTEIGER

@<TRIPOS>ATOM
      1 N         142.2065  137.6189  163.0659 N.pl3   1  UNL1       -0.3572
      2 C         141.9876  138.7448  164.0325 C.ar    1  UNL1        0.0400
      3 C         140.7484  138.7780  164.8771 C.ar    1  UNL1        0.0043
      4 C         140.5295  139.9040  165.8437 C.ar    1  UNL1        0.0561
      5 N         141.5497  140.9967  165.9658 N.ar    1  UNL1       -0.2499
      6 C         142.7890  140.9636  165.1212 C.ar    1  UNL1        0.0820
      7 C         143.8092  142.0563  165.2433 C.ar    1  UNL1        0.0191
      8 C         145.0484  142.0231  164.3987 C.ar    1  UNL1        0.0015
      9 C         145.2673  140.8972  163.4321 C.ar    1  UNL1        0.0001
     10 C         144.2471  139.8044  163.3100 C.ar    1  UNL1        0.0027
     11 C         143.0079  139.8376  164.1546 C.ar    1  UNL1        0.0303
     12 C         139.2902  139.9371  166.6883 C.3     1  UNL1        0.0455
     13 C         138.2700  138.8443  166.5662 C.3     1  UNL1        0.0066
     14 C         138.4889  137.7184  165.5996 C.3     1  UNL1        0.0052
     15 C         139.7281  137.6852  164.7550 C.3     1  UNL1        0.0288
     16 H         141.5369  136.9017  162.9858 H       1  UNL1        0.1423
     17 H         143.0199  137.5971  162.5116 H       1  UNL1        0.1423
@<TRIPOS>BOND
     1     1     2    1
     2     2     3   ar
     3     3     4   ar
     4     4     5   ar
     5     5     6   ar
     6     6     7   ar
     7     7     8   ar
     8     8     9   ar
     9     9    10   ar
    10    10    11   ar
    11     4    12    1
    12    12    13    1
    13    13    14    1
    14    14    15    1
    15    11     2   ar
    16    15     3    1
    17    11     6   ar
    18     1    16    1
    19     1    17    1
@<TRIPOS>MOLECULE
*****
 17 19 0 0 0
SMALL
GASTEIGER

@<TRIPOS>ATOM
      1 N         142.8486  145.1048  162.6072 N.pl3   1  UNL1       -0.3572
      2 C         142.3802  143.8545  163.2909 C.ar    1  UNL1        0.0400
      3 C         140.9452  143.7193  163.7060 C.ar    1  UNL1        0.0043
      4 C         140.4768  142.4690  164.3897 C.ar    1  UNL1        0.0561
      5 N         141.4435  141.3540  164.6582 N.ar    1  UNL1       -0.2499
      6 C         142.8786  141.4891  164.2431 C.ar    1  UNL1        0.0820
      7 C         143.8452  140.3741  164.5117 C.ar    1  UNL1        0.0191
      8 C         145.2803  140.5093  164.0965 C.ar    1  UNL1        0.0015
      9 C         145.7486  141.7596  163.4129 C.ar    1  UNL1        0.0001
     10 C         144.7820  142.8746  163.1443 C.ar    1  UNL1        0.0027
     11 C         143.3470  142.7394  163.5594 C.ar    1  UNL1        0.0303
     12 C         139.0417  142.3338  164.8048 C.3     1  UNL1        0.0455
     13 C         138.0751  143.4489  164.5362 C.3     1  UNL1        0.0066
     14 C         138.5434  144.6992  163.8526 C.3     1  UNL1        0.0052
     15 C         139.9785  144.8344  163.4374 C.3     1  UNL1        0.0288
     16 H         142.2141  145.8367  162.4309 H       1  UNL1        0.1423
     17 H         143.7905  145.1936  162.3347 H       1  UNL1        0.1423
@<TRIPOS>BOND
     1     1     2    1
     2     2     3   ar
     3     3     4   ar
     4     4     5   ar
     5     5     6   ar
     6     6     7   ar
     7     7     8   ar
     8     8     9   ar
     9     9    10   ar
    10    10    11   ar
    11     4    12    1
    12    12    13    1
    13    13    14    1
    14    14    15    1
    15    11     2   ar
    16    15     3    1
    17    11     6   ar
    18     1    16    1
    19     1    17    1
@<TRIPOS>MOLECULE
*****
 17 19 0 0 0
SMALL
GASTEIGER

@<TRIPOS>ATOM
      1 N         141.0192  142.5380  165.1336 N.pl3   1  UNL1       -0.3572
      2 C         140.3680  141.4481  165.9324 C.ar    1  UNL1        0.0400
      3 C         140.1809  141.6118  167.4116 C.ar    1  UNL1        0.0043
      4 C         139.5296  140.5220  168.2104 C.ar    1  UNL1        0.0561
      5 N         139.0655  139.2684  167.5300 N.ar    1  UNL1       -0.2499
      6 C         139.2526  139.1046  166.0507 C.ar    1  UNL1        0.0820
      7 C         138.7884  137.8510  165.3702 C.ar    1  UNL1        0.0191
      8 C         138.9756  137.6872  163.8910 C.ar    1  UNL1        0.0015
      9 C         139.6268  138.7771  163.0922 C.ar    1  UNL1        0.0001
     10 C         140.0910  140.0307  163.7726 C.ar    1  UNL1        0.0027
     11 C         139.9038  140.1944  165.2519 C.ar    1  UNL1        0.0303
     12 C         139.3425  140.6858  169.6897 C.3     1  UNL1        0.0455
     13 C         139.8066  141.9394  170.3701 C.3     1  UNL1        0.0066
     14 C         140.4579  143.0292  169.5713 C.3     1  UNL1        0.0052
     15 C         140.6450  142.8655  168.0921 C.3     1  UNL1        0.0288
     16 H         141.3239  143.3607  165.5802 H       1  UNL1        0.1423
     17 H         141.1421  142.4305  164.1627 H       1  UNL1        0.1423
@<TRIPOS>BOND
     1     1     2    1
     2     2     3   ar
     3     3     4   ar
     4     4     5   ar
     5     5     6   ar
     6     6     7   ar
     7     7     8   ar
     8     8     9   ar
     9     9    10   ar
    10    10    11   ar
    11     4    12    1
    12    12    13    1
    13    13    14    1
    14    14    15    1
    15    11     2   ar
    16    15     3    1
    17    11     6   ar
    18     1    16    1
    19     1    17    1
@<TRIPOS>MOLECULE
*****
 17 19 0 0 0
SMALL
GASTEIGER

@<TRIPOS>ATOM
      1 N         140.9885  142.4529  166.5337 N.pl3   1  UNL1       -0.3572
      2 C         141.4436  141.2416  165.7751 C.ar    1  UNL1        0.0400
      3 C         140.5424  140.0484  165.6567 C.ar    1  UNL1        0.0043
      4 C         140.9975  138.8371  164.8981 C.ar    1  UNL1        0.0561
      5 N         142.3539  138.8189  164.2578 N.ar    1  UNL1       -0.2499
      6 C         143.2552  140.0121  164.3762 C.ar    1  UNL1        0.0820
      7 C         144.6115  139.9940  163.7360 C.ar    1  UNL1        0.0191
      8 C         145.5127  141.1872  163.8544 C.ar    1  UNL1        0.0015
      9 C         145.0576  142.3985  164.6130 C.ar    1  UNL1        0.0001
     10 C         143.7013  142.4167  165.2532 C.ar    1  UNL1        0.0027
     11 C         142.8001  141.2235  165.1349 C.ar    1  UNL1        0.0303
     12 C         140.0962  137.6438  164.7797 C.3     1  UNL1        0.0455
     13 C         138.7399  137.6620  165.4199 C.3     1  UNL1        0.0066
     14 C         138.2848  138.8733  166.1786 C.3     1  UNL1        0.0052
     15 C         139.1860  140.0665  166.2970 C.3     1  UNL1        0.0288
     16 H         140.0983  142.4648  166.9540 H       1  UNL1        0.1423
     17 H         141.5800  143.2361  166.6114 H       1  UNL1        0.1423
@<TRIPOS>BOND
     1     1     2    1
     2     2     3   ar
     3     3     4   ar
     4     4     5   ar
     5     5     6   ar
     6     6     7   ar
     7     7     8   ar
     8     8     9   ar
     9     9    10   ar
    10    10    11   ar
    11     4    12    1
    12    12    13    1
    13    13    14    1
    14    14    15    1
    15    11     2   ar
    16    15     3    1
    17    11     6   ar
    18     1    16    1
    19     1    17    1
