@<TRIPOS>MOLECULE
*****
 39 42 0 0 0
SMALL
GASTEIGER

@<TRIPOS>ATOM
      1 O         138.0363  141.9234  162.2472 O.2     1  UNL1       -0.2506
      2 C         138.8493  140.8875  161.5290 C.2     1  UNL1        0.3267
      3 N         139.4808  139.7646  162.2971 N.am    1  UNL1       -0.2669
      4 N         139.0308  140.9746  160.0425 N.am    1  UNL1       -0.1395
      5 H         140.0144  139.0847  161.8257 H       1  UNL1        0.1565
      6 C         139.2993  139.6775  163.7836 C.ar    1  UNL1        0.0518
      7 C         138.8449  138.3925  164.4097 C.ar    1  UNL1        0.0178
      8 C         138.6634  138.3054  165.8961 C.ar    1  UNL1        0.0382
      9 C         138.9364  139.5035  166.7564 C.ar    1  UNL1        0.1386
     10 C         139.3909  140.7886  166.1303 C.ar    1  UNL1        0.0382
     11 C         139.5723  140.8756  164.6439 C.ar    1  UNL1        0.0178
     12 O         138.7549  139.4164  168.2429 O.3     1  UNL1       -0.4755
     13 C         139.5026  140.3522  169.1459 C.3     1  UNL1        0.2054
     14 C         140.7087  139.8679  169.8949 C.3     1  UNL1        0.0477
     15 C         141.9627  139.5164  169.1506 C.3     1  UNL1        0.0085
     16 C         142.5935  140.5178  168.2291 C.3     1  UNL1        0.0265
     17 C         142.7610  140.1964  166.7735 C.ar    1  UNL1       -0.0222
     18 C         143.1475  141.2762  165.8067 C.ar    1  UNL1       -0.0043
     19 C         143.3149  140.9548  164.3511 C.ar    1  UNL1       -0.0003
     20 C         143.0958  139.5538  163.8624 C.ar    1  UNL1       -0.0000
     21 C         142.7093  138.4740  164.8292 C.ar    1  UNL1       -0.0003
     22 C         142.5419  138.7953  166.2848 C.ar    1  UNL1       -0.0043
     23 S         139.8438  139.9386  159.3242 S.O2    1  UNL1        0.0801
     24 O         141.0942  140.4931  159.9399 O.2     1  UNL1       -0.1496
     25 O         138.5934  139.3842  158.7086 O.2     1  UNL1       -0.1496
     26 C         140.6568  138.9027  158.6060 C.ar    1  UNL1        0.1256
     27 C         142.0090  138.5163  159.1276 C.ar    1  UNL1        0.0211
     28 C         142.8220  137.4804  158.4094 C.ar    1  UNL1        0.0128
     29 C         142.2828  136.8309  157.1696 C.ar    1  UNL1        0.0578
     30 CL        143.0958  135.7949  156.4513 Cl      1  UNL1       -0.0822
     31 C         140.9305  137.2172  156.6479 C.ar    1  UNL1        0.0128
     32 C         140.1175  138.2532  157.3661 C.ar    1  UNL1        0.0211
     33 C         138.3992  142.0975  159.2743 C.3     1  UNL1        0.1467
     34 C         139.2301  143.2670  158.8365 C.ar    1  UNL1       -0.0005
     35 C         139.9667  144.0867  159.8542 C.ar    1  UNL1       -0.0026
     36 C         140.7977  145.2562  159.4164 C.ar    1  UNL1       -0.0003
     37 C         140.8920  145.6062  157.9609 C.ar    1  UNL1       -0.0000
     38 C         140.1555  144.7867  156.9432 C.ar    1  UNL1       -0.0003
     39 C         139.3245  143.6170  157.3810 C.ar    1  UNL1       -0.0026
@<TRIPOS>BOND
     1     1     2    2
     2     2     3   am
     3     3     6    1
     4     6     7   ar
     5     7     8   ar
     6     8     9   ar
     7     9    12    1
     8    12    13    1
     9    13    14    1
    10    14    15    1
    11    15    16    1
    12    16    17    1
    13    17    18   ar
    14    18    19   ar
    15    19    20   ar
    16    20    21   ar
    17    21    22   ar
    18     9    10   ar
    19    10    11   ar
    20     2     4   am
    21     4    33    1
    22    33    34    1
    23    34    35   ar
    24    35    36   ar
    25    36    37   ar
    26    37    38   ar
    27    38    39   ar
    28     4    23    1
    29    23    24    2
    30    23    25    2
    31    23    26    1
    32    26    27   ar
    33    27    28   ar
    34    28    29   ar
    35    29    30    1
    36    29    31   ar
    37    31    32   ar
    38    11     6   ar
    39    39    34   ar
    40    32    26   ar
    41    22    17   ar
    42     3     5    1
@<TRIPOS>MOLECULE
*****
 39 42 0 0 0
SMALL
GASTEIGER

@<TRIPOS>ATOM
      1 O         143.9724  139.7924  160.0669 O.2     1  UNL1       -0.2506
      2 C         142.8515  139.4643  161.0081 C.2     1  UNL1        0.3267
      3 N         141.6285  138.7593  160.5010 N.am    1  UNL1       -0.2669
      4 N         142.9536  139.8412  162.4564 N.am    1  UNL1       -0.1395
      5 H         140.8928  138.5439  161.1188 H       1  UNL1        0.1565
      6 C         141.5263  138.3824  159.0527 C.ar    1  UNL1        0.0518
      7 C         142.5670  137.4977  158.4327 C.ar    1  UNL1        0.0178
      8 C         142.4648  137.1208  156.9845 C.ar    1  UNL1        0.0382
      9 C         141.3219  137.6287  156.1562 C.ar    1  UNL1        0.1386
     10 C         140.2813  138.5133  156.7761 C.ar    1  UNL1        0.0382
     11 C         140.3835  138.8902  158.2244 C.ar    1  UNL1        0.0178
     12 O         141.2198  137.2518  154.7078 O.3     1  UNL1       -0.4755
     13 C         142.2960  136.4238  154.0706 C.3     1  UNL1        0.2054
     14 C         141.9294  135.2739  153.1799 C.3     1  UNL1        0.0477
     15 C         141.9998  133.8692  153.7013 C.3     1  UNL1        0.0085
     16 C         141.8701  133.6080  155.1726 C.3     1  UNL1        0.0265
     17 C         143.0307  133.0476  155.9401 C.ar    1  UNL1       -0.0222
     18 C         143.7997  131.8821  155.3921 C.ar    1  UNL1       -0.0043
     19 C         144.9603  131.3217  156.1594 C.ar    1  UNL1       -0.0003
     20 C         145.3519  131.9268  157.4749 C.ar    1  UNL1       -0.0000
     21 C         144.5830  133.0923  158.0229 C.ar    1  UNL1       -0.0003
     22 C         143.4224  133.6527  157.2555 C.ar    1  UNL1       -0.0043
     23 S         141.8327  139.5130  163.3976 S.O2    1  UNL1        0.0801
     24 O         140.9679  140.5374  162.7248 O.2     1  UNL1       -0.1496
     25 O         142.6976  138.4887  164.0705 O.2     1  UNL1       -0.1496
     26 C         140.7118  139.1849  164.3388 C.ar    1  UNL1        0.1256
     27 C         139.9844  137.8792  164.2126 C.ar    1  UNL1        0.0211
     28 C         138.8635  137.5511  165.1538 C.ar    1  UNL1        0.0128
     29 C         138.4700  138.5287  166.2212 C.ar    1  UNL1        0.0578
     30 CL        137.3490  138.2005  167.1624 Cl      1  UNL1       -0.0822
     31 C         139.1973  139.8345  166.3475 C.ar    1  UNL1        0.0128
     32 C         140.3183  140.1626  165.4063 C.ar    1  UNL1        0.0211
     33 C         144.1767  140.5461  162.9635 C.3     1  UNL1        0.1467
     34 C         144.0908  141.9800  163.3955 C.ar    1  UNL1       -0.0005
     35 C         143.5839  143.0215  162.4423 C.ar    1  UNL1       -0.0026
     36 C         143.4981  144.4553  162.8743 C.ar    1  UNL1       -0.0003
     37 C         143.9191  144.8478  164.2595 C.ar    1  UNL1       -0.0000
     38 C         144.4260  143.8064  165.2127 C.ar    1  UNL1       -0.0003
     39 C         144.5118  142.3724  164.7807 C.ar    1  UNL1       -0.0026
@<TRIPOS>BOND
     1     1     2    2
     2     2     3   am
     3     3     6    1
     4     6     7   ar
     5     7     8   ar
     6     8     9   ar
     7     9    12    1
     8    12    13    1
     9    13    14    1
    10    14    15    1
    11    15    16    1
    12    16    17    1
    13    17    18   ar
    14    18    19   ar
    15    19    20   ar
    16    20    21   ar
    17    21    22   ar
    18     9    10   ar
    19    10    11   ar
    20     2     4   am
    21     4    33    1
    22    33    34    1
    23    34    35   ar
    24    35    36   ar
    25    36    37   ar
    26    37    38   ar
    27    38    39   ar
    28     4    23    1
    29    23    24    2
    30    23    25    2
    31    23    26    1
    32    26    27   ar
    33    27    28   ar
    34    28    29   ar
    35    29    30    1
    36    29    31   ar
    37    31    32   ar
    38    11     6   ar
    39    39    34   ar
    40    32    26   ar
    41    22    17   ar
    42     3     5    1
@<TRIPOS>MOLECULE
*****
 39 42 0 0 0
SMALL
GASTEIGER

@<TRIPOS>ATOM
      1 O         143.3406  138.0152  159.2472 O.2     1  UNL1       -0.2506
      2 C         142.0559  138.3879  158.5685 C.2     1  UNL1        0.3267
      3 N         141.0362  139.2139  159.2950 N.am    1  UNL1       -0.2669
      4 N         141.7909  137.9346  157.1634 N.am    1  UNL1       -0.1395
      5 H         140.1930  139.4586  158.8496 H       1  UNL1        0.1565
      6 C         141.3011  139.6673  160.7001 C.ar    1  UNL1        0.0518
      7 C         141.7476  138.6783  161.7357 C.ar    1  UNL1        0.0178
      8 C         142.0126  139.1316  163.1407 C.ar    1  UNL1        0.0382
      9 C         141.8310  140.5740  163.5102 C.ar    1  UNL1        0.1386
     10 C         141.3845  141.5630  162.4747 C.ar    1  UNL1        0.0382
     11 C         141.1196  141.1097  161.0696 C.ar    1  UNL1        0.0178
     12 O         142.0960  141.0274  164.9154 O.3     1  UNL1       -0.4755
     13 C         142.4318  140.0223  165.9770 C.3     1  UNL1        0.2054
     14 C         141.5141  139.8337  167.1485 C.3     1  UNL1        0.0477
     15 C         140.1143  140.3702  167.0986 C.3     1  UNL1        0.0085
     16 C         138.9820  139.4746  166.6916 C.3     1  UNL1        0.0265
     17 C         138.6978  139.2385  165.2378 C.ar    1  UNL1       -0.0222
     18 C         138.1980  140.3623  164.3792 C.ar    1  UNL1       -0.0043
     19 C         137.9138  140.1263  162.9254 C.ar    1  UNL1       -0.0003
     20 C         138.1293  138.7664  162.3303 C.ar    1  UNL1       -0.0000
     21 C         138.6291  137.6426  163.1889 C.ar    1  UNL1       -0.0003
     22 C         138.9133  137.8786  164.6426 C.ar    1  UNL1       -0.0043
     23 S         140.5062  138.3073  156.4848 S.O2    1  UNL1        0.0801
     24 O         141.2550  139.2397  155.5793 O.2     1  UNL1       -0.1496
     25 O         139.7574  137.3749  157.3902 O.2     1  UNL1       -0.1496
     26 C         139.2215  138.6801  155.8061 C.ar    1  UNL1        0.1256
     27 C         138.5157  137.6823  154.9364 C.ar    1  UNL1        0.0211
     28 C         137.2310  138.0551  154.2578 C.ar    1  UNL1        0.0128
     29 C         136.6520  139.4256  154.4489 C.ar    1  UNL1        0.0578
     30 CL        135.3673  139.7983  153.7702 Cl      1  UNL1       -0.0822
     31 C         137.3578  140.4234  155.3186 C.ar    1  UNL1        0.0128
     32 C         138.6425  140.0506  155.9972 C.ar    1  UNL1        0.0211
     33 C         142.8107  137.1085  156.4370 C.3     1  UNL1        0.1467
     34 C         142.6326  135.6232  156.3275 C.ar    1  UNL1       -0.0005
     35 C         143.3891  134.7076  157.2438 C.ar    1  UNL1       -0.0026
     36 C         143.2111  133.2222  157.1344 C.ar    1  UNL1       -0.0003
     37 C         142.2766  132.6524  156.1087 C.ar    1  UNL1       -0.0000
     38 C         141.5201  133.5679  155.1924 C.ar    1  UNL1       -0.0003
     39 C         141.6981  135.0534  155.3018 C.ar    1  UNL1       -0.0026
@<TRIPOS>BOND
     1     1     2    2
     2     2     3   am
     3     3     6    1
     4     6     7   ar
     5     7     8   ar
     6     8     9   ar
     7     9    12    1
     8    12    13    1
     9    13    14    1
    10    14    15    1
    11    15    16    1
    12    16    17    1
    13    17    18   ar
    14    18    19   ar
    15    19    20   ar
    16    20    21   ar
    17    21    22   ar
    18     9    10   ar
    19    10    11   ar
    20     2     4   am
    21     4    33    1
    22    33    34    1
    23    34    35   ar
    24    35    36   ar
    25    36    37   ar
    26    37    38   ar
    27    38    39   ar
    28     4    23    1
    29    23    24    2
    30    23    25    2
    31    23    26    1
    32    26    27   ar
    33    27    28   ar
    34    28    29   ar
    35    29    30    1
    36    29    31   ar
    37    31    32   ar
    38    11     6   ar
    39    39    34   ar
    40    32    26   ar
    41    22    17   ar
    42     3     5    1
@<TRIPOS>MOLECULE
*****
 39 42 0 0 0
SMALL
GASTEIGER

@<TRIPOS>ATOM
      1 O         141.5119  141.3687  158.4111 O.2     1  UNL1       -0.2506
      2 C         140.9420  140.7264  159.6410 C.2     1  UNL1        0.3267
      3 N         140.7242  139.2429  159.6799 N.am    1  UNL1       -0.2669
      4 N         140.5900  141.5677  160.8320 N.am    1  UNL1       -0.1395
      5 H         140.3501  138.8213  160.4871 H       1  UNL1        0.1565
      6 C         141.0762  138.4016  158.4889 C.ar    1  UNL1        0.0518
      7 C         142.4897  137.9424  158.2864 C.ar    1  UNL1        0.0178
      8 C         142.8417  137.1012  157.0955 C.ar    1  UNL1        0.0382
      9 C         141.7801  136.7191  156.1070 C.ar    1  UNL1        0.1386
     10 C         140.3665  137.1782  156.3096 C.ar    1  UNL1        0.0382
     11 C         140.0146  138.0194  157.5005 C.ar    1  UNL1        0.0178
     12 O         142.1321  135.8778  154.9161 O.3     1  UNL1       -0.4755
     13 C         141.0454  135.2929  154.0634 C.3     1  UNL1        0.2054
     14 C         141.3077  134.0538  153.2596 C.3     1  UNL1        0.0477
     15 C         141.6959  132.7801  153.9501 C.3     1  UNL1        0.0085
     16 C         141.5617  132.6635  155.4395 C.3     1  UNL1        0.0265
     17 C         142.7656  132.3536  156.2790 C.ar    1  UNL1       -0.0222
     18 C         143.3423  130.9689  156.2809 C.ar    1  UNL1       -0.0043
     19 C         144.5461  130.6589  157.1203 C.ar    1  UNL1       -0.0003
     20 C         145.1733  131.7337  157.9579 C.ar    1  UNL1       -0.0000
     21 C         144.5965  133.1184  157.9560 C.ar    1  UNL1       -0.0003
     22 C         143.3927  133.4283  157.1165 C.ar    1  UNL1       -0.0043
     23 S         140.0201  140.9254  162.0619 S.O2    1  UNL1        0.0801
     24 O         138.6654  141.4703  161.7187 O.2     1  UNL1       -0.1496
     25 O         141.3749  140.3804  162.4050 O.2     1  UNL1       -0.1496
     26 C         139.4502  140.2830  163.2917 C.ar    1  UNL1        0.1256
     27 C         139.3531  138.7889  163.3811 C.ar    1  UNL1        0.0211
     28 C         138.7832  138.1465  164.6110 C.ar    1  UNL1        0.0128
     29 C         138.3105  138.9984  165.7515 C.ar    1  UNL1        0.0578
     30 CL        137.7406  138.3560  166.9814 Cl      1  UNL1       -0.0822
     31 C         138.4075  140.4926  165.6622 C.ar    1  UNL1        0.0128
     32 C         138.9774  141.1349  164.4323 C.ar    1  UNL1        0.0211
     33 C         140.8079  143.0512  160.7930 C.3     1  UNL1        0.1467
     34 C         141.7662  143.6939  161.7515 C.ar    1  UNL1       -0.0005
     35 C         143.2363  143.4173  161.6409 C.ar    1  UNL1       -0.0026
     36 C         144.1946  144.0600  162.5993 C.ar    1  UNL1       -0.0003
     37 C         143.6827  144.9793  163.6684 C.ar    1  UNL1       -0.0000
     38 C         142.2127  145.2559  163.7791 C.ar    1  UNL1       -0.0003
     39 C         141.2543  144.6132  162.8206 C.ar    1  UNL1       -0.0026
@<TRIPOS>BOND
     1     1     2    2
     2     2     3   am
     3     3     6    1
     4     6     7   ar
     5     7     8   ar
     6     8     9   ar
     7     9    12    1
     8    12    13    1
     9    13    14    1
    10    14    15    1
    11    15    16    1
    12    16    17    1
    13    17    18   ar
    14    18    19   ar
    15    19    20   ar
    16    20    21   ar
    17    21    22   ar
    18     9    10   ar
    19    10    11   ar
    20     2     4   am
    21     4    33    1
    22    33    34    1
    23    34    35   ar
    24    35    36   ar
    25    36    37   ar
    26    37    38   ar
    27    38    39   ar
    28     4    23    1
    29    23    24    2
    30    23    25    2
    31    23    26    1
    32    26    27   ar
    33    27    28   ar
    34    28    29   ar
    35    29    30    1
    36    29    31   ar
    37    31    32   ar
    38    11     6   ar
    39    39    34   ar
    40    32    26   ar
    41    22    17   ar
    42     3     5    1
@<TRIPOS>MOLECULE
*****
 39 42 0 0 0
SMALL
GASTEIGER

@<TRIPOS>ATOM
      1 O         141.0631  140.7642  160.3035 O.2     1  UNL1       -0.2506
      2 C         141.2373  139.5368  159.4590 C.2     1  UNL1        0.3267
      3 N         140.9095  138.1860  160.0225 N.am    1  UNL1       -0.2669
      4 N         141.7395  139.6604  158.0509 N.am    1  UNL1       -0.1395
      5 H         141.0238  137.3804  159.4682 H       1  UNL1        0.1565
      6 C         140.4073  138.0624  161.4306 C.ar    1  UNL1        0.0518
      7 C         141.3442  137.6521  162.5277 C.ar    1  UNL1        0.0178
      8 C         140.8421  137.5286  163.9357 C.ar    1  UNL1        0.0382
      9 C         139.4029  137.8153  164.2466 C.ar    1  UNL1        0.1386
     10 C         138.4660  138.2256  163.1494 C.ar    1  UNL1        0.0382
     11 C         138.9681  138.3492  161.7415 C.ar    1  UNL1        0.0178
     12 O         138.9007  137.6918  165.6547 O.3     1  UNL1       -0.4755
     13 C         138.2113  138.8518  166.3095 C.3     1  UNL1        0.2054
     14 C         138.8398  139.5277  167.4920 C.3     1  UNL1        0.0477
     15 C         139.9605  140.5040  167.2897 C.3     1  UNL1        0.0085
     16 C         140.2913  140.9906  165.9099 C.3     1  UNL1        0.0265
     17 C         139.4915  142.1002  165.2941 C.ar    1  UNL1       -0.0222
     18 C         138.5138  141.8003  164.1968 C.ar    1  UNL1       -0.0043
     19 C         137.7140  142.9098  163.5809 C.ar    1  UNL1       -0.0003
     20 C         137.8920  144.3192  164.0623 C.ar    1  UNL1       -0.0000
     21 C         138.8698  144.6191  165.1596 C.ar    1  UNL1       -0.0003
     22 C         139.6695  143.5096  165.7755 C.ar    1  UNL1       -0.0043
     23 S         141.9138  138.4330  157.2064 S.O2    1  UNL1        0.0801
     24 O         143.1362  138.0647  157.9939 O.2     1  UNL1       -0.1496
     25 O         140.6914  138.8013  156.4189 O.2     1  UNL1       -0.1496
     26 C         142.0880  137.2056  156.3619 C.ar    1  UNL1        0.1256
     27 C         140.8903  136.5351  155.7571 C.ar    1  UNL1        0.0211
     28 C         141.0645  135.3077  154.9126 C.ar    1  UNL1        0.0128
     29 C         142.4365  134.7509  154.6729 C.ar    1  UNL1        0.0578
     30 CL        142.6108  133.5235  153.8284 Cl      1  UNL1       -0.0822
     31 C         143.6343  135.4214  155.2777 C.ar    1  UNL1        0.0128
     32 C         143.4601  136.6488  156.1222 C.ar    1  UNL1        0.0211
     33 C         142.0674  141.0112  157.4874 C.3     1  UNL1        0.1467
     34 C         143.4988  141.4162  157.2947 C.ar    1  UNL1       -0.0005
     35 C         144.1954  142.2312  158.3438 C.ar    1  UNL1       -0.0026
     36 C         145.6268  142.6361  158.1511 C.ar    1  UNL1       -0.0003
     37 C         146.3616  142.2261  156.9094 C.ar    1  UNL1       -0.0000
     38 C         145.6650  141.4111  155.8603 C.ar    1  UNL1       -0.0003
     39 C         144.2336  141.0061  156.0530 C.ar    1  UNL1       -0.0026
@<TRIPOS>BOND
     1     1     2    2
     2     2     3   am
     3     3     6    1
     4     6     7   ar
     5     7     8   ar
     6     8     9   ar
     7     9    12    1
     8    12    13    1
     9    13    14    1
    10    14    15    1
    11    15    16    1
    12    16    17    1
    13    17    18   ar
    14    18    19   ar
    15    19    20   ar
    16    20    21   ar
    17    21    22   ar
    18     9    10   ar
    19    10    11   ar
    20     2     4   am
    21     4    33    1
    22    33    34    1
    23    34    35   ar
    24    35    36   ar
    25    36    37   ar
    26    37    38   ar
    27    38    39   ar
    28     4    23    1
    29    23    24    2
    30    23    25    2
    31    23    26    1
    32    26    27   ar
    33    27    28   ar
    34    28    29   ar
    35    29    30    1
    36    29    31   ar
    37    31    32   ar
    38    11     6   ar
    39    39    34   ar
    40    32    26   ar
    41    22    17   ar
    42     3     5    1
@<TRIPOS>MOLECULE
*****
 39 42 0 0 0
SMALL
GASTEIGER

@<TRIPOS>ATOM
      1 O         141.8523  137.6677  158.2399 O.2     1  UNL1       -0.2506
      2 C         142.9200  138.5863  157.7239 C.2     1  UNL1        0.3267
      3 N         143.6634  139.4797  158.6722 N.am    1  UNL1       -0.2669
      4 N         143.2444  138.6113  156.2596 N.am    1  UNL1       -0.1395
      5 H         144.3641  140.0825  158.3335 H       1  UNL1        0.1565
      6 C         143.3390  139.4546  160.1365 C.ar    1  UNL1        0.0518
      7 C         142.3589  140.4377  160.7045 C.ar    1  UNL1        0.0178
      8 C         142.0346  140.4126  162.1688 C.ar    1  UNL1        0.0382
      9 C         142.6904  139.4043  163.0651 C.ar    1  UNL1        0.1386
     10 C         143.6705  138.4212  162.4970 C.ar    1  UNL1        0.0382
     11 C         143.9948  138.4463  161.0328 C.ar    1  UNL1        0.0178
     12 O         142.3660  139.3792  164.5294 O.3     1  UNL1       -0.4755
     13 C         141.2259  140.1974  165.0592 C.3     1  UNL1        0.2054
     14 C         141.3662  140.9224  166.3649 C.3     1  UNL1        0.0477
     15 C         141.9718  142.2943  166.3997 C.3     1  UNL1        0.0085
     16 C         143.4358  142.4749  166.1275 C.3     1  UNL1        0.0265
     17 C         143.9262  142.6003  164.7155 C.ar    1  UNL1       -0.0222
     18 C         145.0396  141.7216  164.2274 C.ar    1  UNL1       -0.0043
     19 C         145.5301  141.8470  162.8155 C.ar    1  UNL1       -0.0003
     20 C         144.9072  142.8512  161.8916 C.ar    1  UNL1       -0.0000
     21 C         143.7938  143.7299  162.3797 C.ar    1  UNL1       -0.0003
     22 C         143.3033  143.6045  163.7916 C.ar    1  UNL1       -0.0043
     23 S         144.3121  139.5299  155.7436 S.O2    1  UNL1        0.0801
     24 O         143.3530  140.6814  155.8088 O.2     1  UNL1       -0.1496
     25 O         145.2711  138.3784  155.6783 O.2     1  UNL1       -0.1496
     26 C         145.3798  140.4484  155.2275 C.ar    1  UNL1        0.1256
     27 C         145.7185  140.4586  153.7663 C.ar    1  UNL1        0.0211
     28 C         146.7862  141.3771  153.2503 C.ar    1  UNL1        0.0128
     29 C         147.5152  142.2855  154.1955 C.ar    1  UNL1        0.0578
     30 CL        148.5829  143.2040  153.6795 Cl      1  UNL1       -0.0822
     31 C         147.1765  142.2753  155.6568 C.ar    1  UNL1        0.0128
     32 C         146.1088  141.3568  156.1728 C.ar    1  UNL1        0.0211
     33 C         142.5010  137.7179  155.3113 C.3     1  UNL1        0.1467
     34 C         142.5559  136.2290  155.4848 C.ar    1  UNL1       -0.0005
     35 C         143.8037  135.5802  156.0067 C.ar    1  UNL1       -0.0026
     36 C         143.8586  134.0914  156.1801 C.ar    1  UNL1       -0.0003
     37 C         142.6658  133.2512  155.8317 C.ar    1  UNL1       -0.0000
     38 C         141.4181  133.8999  155.3099 C.ar    1  UNL1       -0.0003
     39 C         141.3632  135.3889  155.1364 C.ar    1  UNL1       -0.0026
@<TRIPOS>BOND
     1     1     2    2
     2     2     3   am
     3     3     6    1
     4     6     7   ar
     5     7     8   ar
     6     8     9   ar
     7     9    12    1
     8    12    13    1
     9    13    14    1
    10    14    15    1
    11    15    16    1
    12    16    17    1
    13    17    18   ar
    14    18    19   ar
    15    19    20   ar
    16    20    21   ar
    17    21    22   ar
    18     9    10   ar
    19    10    11   ar
    20     2     4   am
    21     4    33    1
    22    33    34    1
    23    34    35   ar
    24    35    36   ar
    25    36    37   ar
    26    37    38   ar
    27    38    39   ar
    28     4    23    1
    29    23    24    2
    30    23    25    2
    31    23    26    1
    32    26    27   ar
    33    27    28   ar
    34    28    29   ar
    35    29    30    1
    36    29    31   ar
    37    31    32   ar
    38    11     6   ar
    39    39    34   ar
    40    32    26   ar
    41    22    17   ar
    42     3     5    1
@<TRIPOS>MOLECULE
*****
 39 42 0 0 0
SMALL
GASTEIGER

@<TRIPOS>ATOM
      1 O         141.7649  137.5478  157.9362 O.2     1  UNL1       -0.2506
      2 C         142.8400  138.4435  157.3959 C.2     1  UNL1        0.3267
      3 N         143.5624  139.3855  158.3128 N.am    1  UNL1       -0.2669
      4 N         143.1928  138.3970  155.9387 N.am    1  UNL1       -0.1395
      5 H         144.2680  139.9733  157.9581 H       1  UNL1        0.1565
      6 C         143.2096  139.4320  159.7700 C.ar    1  UNL1        0.0518
      7 C         141.9746  140.1547  160.2200 C.ar    1  UNL1        0.0178
      8 C         141.6219  140.2011  161.6772 C.ar    1  UNL1        0.0382
      9 C         142.5042  139.5249  162.6844 C.ar    1  UNL1        0.1386
     10 C         143.7392  138.8022  162.2343 C.ar    1  UNL1        0.0382
     11 C         144.0919  138.7558  160.7772 C.ar    1  UNL1        0.0178
     12 O         142.1514  139.5714  164.1416 O.3     1  UNL1       -0.4755
     13 C         142.0071  138.2970  164.9193 C.3     1  UNL1        0.2054
     14 C         141.0767  137.2244  164.4355 C.3     1  UNL1        0.0477
     15 C         139.6470  137.2111  164.8891 C.3     1  UNL1        0.0085
     16 C         138.8570  138.4859  164.9164 C.3     1  UNL1        0.0265
     17 C         138.4902  139.1686  163.6320 C.ar    1  UNL1       -0.0222
     18 C         138.3651  138.3710  162.3678 C.ar    1  UNL1       -0.0043
     19 C         137.9983  139.0537  161.0836 C.ar    1  UNL1       -0.0003
     20 C         137.7567  140.5339  161.0635 C.ar    1  UNL1       -0.0000
     21 C         137.8819  141.3315  162.3277 C.ar    1  UNL1       -0.0003
     22 C         138.2486  140.6489  163.6120 C.ar    1  UNL1       -0.0043
     23 S         144.2679  139.2926  155.3984 S.O2    1  UNL1        0.0801
     24 O         143.2447  140.3539  155.1215 O.2     1  UNL1       -0.1496
     25 O         145.2912  138.2313  155.6752 O.2     1  UNL1       -0.1496
     26 C         145.3431  140.1882  154.8581 C.ar    1  UNL1        0.1256
     27 C         145.6110  140.2328  153.3829 C.ar    1  UNL1        0.0211
     28 C         146.6862  141.1284  152.8426 C.ar    1  UNL1        0.0128
     29 C         147.4934  141.9794  153.7775 C.ar    1  UNL1        0.0578
     30 CL        148.5686  142.8750  153.2372 Cl      1  UNL1       -0.0822
     31 C         147.2255  141.9348  155.2528 C.ar    1  UNL1        0.0128
     32 C         146.1504  141.0392  155.7931 C.ar    1  UNL1        0.0211
     33 C         142.4704  137.4549  155.0218 C.3     1  UNL1        0.1467
     34 C         142.5230  135.9769  155.2721 C.ar    1  UNL1       -0.0005
     35 C         141.2908  135.1410  155.0900 C.ar    1  UNL1       -0.0026
     36 C         141.3434  133.6630  155.3402 C.ar    1  UNL1       -0.0003
     37 C         142.6281  133.0208  155.7727 C.ar    1  UNL1       -0.0000
     38 C         143.8602  133.8566  155.9549 C.ar    1  UNL1       -0.0003
     39 C         143.8077  135.3347  155.7046 C.ar    1  UNL1       -0.0026
@<TRIPOS>BOND
     1     1     2    2
     2     2     3   am
     3     3     6    1
     4     6     7   ar
     5     7     8   ar
     6     8     9   ar
     7     9    12    1
     8    12    13    1
     9    13    14    1
    10    14    15    1
    11    15    16    1
    12    16    17    1
    13    17    18   ar
    14    18    19   ar
    15    19    20   ar
    16    20    21   ar
    17    21    22   ar
    18     9    10   ar
    19    10    11   ar
    20     2     4   am
    21     4    33    1
    22    33    34    1
    23    34    35   ar
    24    35    36   ar
    25    36    37   ar
    26    37    38   ar
    27    38    39   ar
    28     4    23    1
    29    23    24    2
    30    23    25    2
    31    23    26    1
    32    26    27   ar
    33    27    28   ar
    34    28    29   ar
    35    29    30    1
    36    29    31   ar
    37    31    32   ar
    38    11     6   ar
    39    39    34   ar
    40    32    26   ar
    41    22    17   ar
    42     3     5    1
@<TRIPOS>MOLECULE
*****
 39 42 0 0 0
SMALL
GASTEIGER

@<TRIPOS>ATOM
      1 O         143.2317  137.4112  159.4516 O.2     1  UNL1       -0.2506
      2 C         141.9822  138.1049  158.9964 C.2     1  UNL1        0.3267
      3 N         141.0979  138.7897  159.9960 N.am    1  UNL1       -0.2669
      4 N         141.6168  138.1139  157.5416 N.am    1  UNL1       -0.1395
      5 H         140.2778  139.2450  159.6972 H       1  UNL1        0.1565
      6 C         141.4632  138.7807  161.4508 C.ar    1  UNL1        0.0518
      7 C         141.0933  137.6080  162.3098 C.ar    1  UNL1        0.0178
      8 C         141.4586  137.5991  163.7645 C.ar    1  UNL1        0.0382
      9 C         142.1939  138.7628  164.3604 C.ar    1  UNL1        0.1386
     10 C         142.5638  139.9356  163.5014 C.ar    1  UNL1        0.0382
     11 C         142.1985  139.9445  162.0467 C.ar    1  UNL1        0.0178
     12 O         142.5592  138.7539  165.8152 O.3     1  UNL1       -0.4755
     13 C         141.8653  139.6811  166.7685 C.3     1  UNL1        0.2054
     14 C         140.5101  140.2280  166.4303 C.3     1  UNL1        0.0477
     15 C         139.2835  139.4032  166.6852 C.3     1  UNL1        0.0085
     16 C         138.0582  139.6012  165.8429 C.3     1  UNL1        0.0265
     17 C         138.1337  140.4237  164.5907 C.ar    1  UNL1       -0.0222
     18 C         138.2966  139.7507  163.2601 C.ar    1  UNL1       -0.0043
     19 C         138.3721  140.5730  162.0079 C.ar    1  UNL1       -0.0003
     20 C         138.2847  142.0684  162.0864 C.ar    1  UNL1       -0.0000
     21 C         138.1219  142.7414  163.4170 C.ar    1  UNL1       -0.0003
     22 C         138.0463  141.9190  164.6691 C.ar    1  UNL1       -0.0043
     23 S         140.3672  138.8077  157.0864 S.O2    1  UNL1        0.0801
     24 O         139.5460  137.6559  157.5854 O.2     1  UNL1       -0.1496
     25 O         141.1885  139.9595  156.5873 O.2     1  UNL1       -0.1496
     26 C         139.1177  139.5015  156.6311 C.ar    1  UNL1        0.1256
     27 C         138.5676  139.2337  155.2616 C.ar    1  UNL1        0.0211
     28 C         137.3180  139.9275  154.8064 C.ar    1  UNL1        0.0128
     29 C         136.6185  140.8890  155.7207 C.ar    1  UNL1        0.0578
     30 CL        135.3689  141.5828  155.2655 Cl      1  UNL1       -0.0822
     31 C         137.1685  141.1568  157.0904 C.ar    1  UNL1        0.0128
     32 C         138.4181  140.4630  157.5456 C.ar    1  UNL1        0.0211
     33 C         142.5011  137.4292  156.5420 C.3     1  UNL1        0.1467
     34 C         142.3687  135.9531  156.3108 C.ar    1  UNL1       -0.0005
     35 C         141.3406  135.4336  155.3499 C.ar    1  UNL1       -0.0026
     36 C         141.2082  133.9575  155.1187 C.ar    1  UNL1       -0.0003
     37 C         142.1040  133.0008  155.8482 C.ar    1  UNL1       -0.0000
     38 C         143.1321  133.5201  156.8090 C.ar    1  UNL1       -0.0003
     39 C         143.2645  134.9963  157.0403 C.ar    1  UNL1       -0.0026
@<TRIPOS>BOND
     1     1     2    2
     2     2     3   am
     3     3     6    1
     4     6     7   ar
     5     7     8   ar
     6     8     9   ar
     7     9    12    1
     8    12    13    1
     9    13    14    1
    10    14    15    1
    11    15    16    1
    12    16    17    1
    13    17    18   ar
    14    18    19   ar
    15    19    20   ar
    16    20    21   ar
    17    21    22   ar
    18     9    10   ar
    19    10    11   ar
    20     2     4   am
    21     4    33    1
    22    33    34    1
    23    34    35   ar
    24    35    36   ar
    25    36    37   ar
    26    37    38   ar
    27    38    39   ar
    28     4    23    1
    29    23    24    2
    30    23    25    2
    31    23    26    1
    32    26    27   ar
    33    27    28   ar
    34    28    29   ar
    35    29    30    1
    36    29    31   ar
    37    31    32   ar
    38    11     6   ar
    39    39    34   ar
    40    32    26   ar
    41    22    17   ar
    42     3     5    1
@<TRIPOS>MOLECULE
*****
 39 42 0 0 0
SMALL
GASTEIGER

@<TRIPOS>ATOM
      1 O         143.0830  137.7215  159.0734 O.2     1  UNL1       -0.2506
      2 C         141.8084  138.1760  158.4263 C.2     1  UNL1        0.3267
      3 N         140.8038  138.9603  159.2173 N.am    1  UNL1       -0.2669
      4 N         141.5384  137.8463  156.9880 N.am    1  UNL1       -0.1395
      5 H         139.9673  139.2586  158.7925 H       1  UNL1        0.1565
      6 C         141.0738  139.2900  160.6555 C.ar    1  UNL1        0.0518
      7 C         141.5496  140.6612  161.0340 C.ar    1  UNL1        0.0178
      8 C         141.8196  140.9909  162.4722 C.ar    1  UNL1        0.0382
      9 C         141.6138  139.9494  163.5318 C.ar    1  UNL1        0.1386
     10 C         141.1380  138.5782  163.1533 C.ar    1  UNL1        0.0382
     11 C         140.8680  138.2485  161.7152 C.ar    1  UNL1        0.0178
     12 O         141.8838  140.2792  164.9701 O.3     1  UNL1       -0.4755
     13 C         140.8293  140.0302  166.0074 C.3     1  UNL1        0.2054
     14 C         139.8747  141.1243  166.3842 C.3     1  UNL1        0.0477
     15 C         139.7892  142.3661  165.5473 C.3     1  UNL1        0.0085
     16 C         138.5367  142.6680  164.7792 C.3     1  UNL1        0.0265
     17 C         138.3084  142.0356  163.4383 C.ar    1  UNL1       -0.0222
     18 C         138.5077  142.8382  162.1868 C.ar    1  UNL1       -0.0043
     19 C         138.2794  142.2059  160.8459 C.ar    1  UNL1       -0.0003
     20 C         137.8518  140.7710  160.7565 C.ar    1  UNL1       -0.0000
     21 C         137.6525  139.9683  162.0079 C.ar    1  UNL1       -0.0003
     22 C         137.8808  140.6007  163.3488 C.ar    1  UNL1       -0.0043
     23 S         140.2638  138.3008  156.3409 S.O2    1  UNL1        0.0801
     24 O         139.4787  137.4266  157.2733 O.2     1  UNL1       -0.1496
     25 O         141.0489  139.1750  155.4085 O.2     1  UNL1       -0.1496
     26 C         138.9892  138.7553  155.6938 C.ar    1  UNL1        0.1256
     27 C         138.2372  137.8283  154.7854 C.ar    1  UNL1        0.0211
     28 C         136.9626  138.2828  154.1383 C.ar    1  UNL1        0.0128
     29 C         136.4399  139.6643  154.3995 C.ar    1  UNL1        0.0578
     30 CL        135.1653  140.1189  153.7524 Cl      1  UNL1       -0.0822
     31 C         137.1919  140.5914  155.3079 C.ar    1  UNL1        0.0128
     32 C         138.4666  140.1369  155.9550 C.ar    1  UNL1        0.0211
     33 C         142.5430  137.0621  156.1970 C.3     1  UNL1        0.1467
     34 C         142.4606  135.5650  156.1546 C.ar    1  UNL1       -0.0005
     35 C         141.4559  134.8940  155.2655 C.ar    1  UNL1       -0.0026
     36 C         141.3735  133.3969  155.2231 C.ar    1  UNL1       -0.0003
     37 C         142.2959  132.5707  156.0697 C.ar    1  UNL1       -0.0000
     38 C         143.3006  133.2416  156.9587 C.ar    1  UNL1       -0.0003
     39 C         143.3830  134.7388  157.0011 C.ar    1  UNL1       -0.0026
@<TRIPOS>BOND
     1     1     2    2
     2     2     3   am
     3     3     6    1
     4     6     7   ar
     5     7     8   ar
     6     8     9   ar
     7     9    12    1
     8    12    13    1
     9    13    14    1
    10    14    15    1
    11    15    16    1
    12    16    17    1
    13    17    18   ar
    14    18    19   ar
    15    19    20   ar
    16    20    21   ar
    17    21    22   ar
    18     9    10   ar
    19    10    11   ar
    20     2     4   am
    21     4    33    1
    22    33    34    1
    23    34    35   ar
    24    35    36   ar
    25    36    37   ar
    26    37    38   ar
    27    38    39   ar
    28     4    23    1
    29    23    24    2
    30    23    25    2
    31    23    26    1
    32    26    27   ar
    33    27    28   ar
    34    28    29   ar
    35    29    30    1
    36    29    31   ar
    37    31    32   ar
    38    11     6   ar
    39    39    34   ar
    40    32    26   ar
    41    22    17   ar
    42     3     5    1
