@<TRIPOS>MOLECULE
*****
 22 23 0 0 0
SMALL
GASTEIGER

@<TRIPOS>ATOM
      1 C         141.4738  141.7927  169.7274 C.ar    1  UNL1        0.1219
      2 C         141.7607  141.1929  168.3829 C.ar    1  UNL1        0.0230
      3 C         140.7475  140.3020  167.7275 C.ar    1  UNL1        0.0383
      4 C         139.4474  140.0108  168.4166 C.ar    1  UNL1        0.1386
      5 C         139.1606  140.6106  169.7612 C.ar    1  UNL1        0.0383
      6 C         140.1738  141.5016  170.4166 C.ar    1  UNL1        0.0230
      7 N         143.5003  143.5747  171.0383 N.3     1  UNL1       -0.2035
      8 S         142.4871  142.6837  170.3829 S.O2    1  UNL1        0.0572
      9 O         141.7682  142.5386  171.6914 O.2     1  UNL1       -0.1532
     10 O         143.2059  142.8288  169.0744 O.2     1  UNL1       -0.1532
     11 H         143.6997  143.2296  171.9772 H       1  UNL1        0.1442
     12 H         143.1315  144.5239  171.0961 H       1  UNL1        0.1442
     13 O         138.4342  139.1198  167.7612 O.3     1  UNL1       -0.4754
     14 C         138.6344  138.6723  166.3436 C.3     1  UNL1        0.2068
     15 C         138.0688  139.4817  165.2145 C.3     1  UNL1        0.0646
     16 C         138.9810  140.2923  164.3422 C.3     1  UNL1        0.0759
     17 N         139.0409  141.7828  164.5002 N.3     1  UNL1       -0.2726
     18 C         140.3625  142.4634  164.7001 C.3     1  UNL1        0.0721
     19 C         140.4224  143.9538  164.8580 C.3     1  UNL1        0.0174
     20 C         139.1605  144.7637  164.8160 C.3     1  UNL1        0.0029
     21 C         137.8388  144.0832  164.6161 C.3     1  UNL1        0.0174
     22 C         137.7790  142.5927  164.4581 C.3     1  UNL1        0.0721
@<TRIPOS>BOND
     1     7     8    1
     2     8     9    2
     3     8    10    2
     4     8     1    1
     5     1     2   ar
     6     2     3   ar
     7     3     4   ar
     8     4    13    1
     9    13    14    1
    10    14    15    1
    11    15    16    1
    12    16    17    1
    13    17    18    1
    14    18    19    1
    15    19    20    1
    16    20    21    1
    17    21    22    1
    18     4     5   ar
    19     5     6   ar
    20     6     1   ar
    21    22    17    1
    22     7    11    1
    23     7    12    1
@<TRIPOS>MOLECULE
*****
 22 23 0 0 0
SMALL
GASTEIGER

@<TRIPOS>ATOM
      1 C         141.3730  141.7597  169.6930 C.ar    1  UNL1        0.1219
      2 C         140.1267  141.3636  170.4276 C.ar    1  UNL1        0.0230
      3 C         139.1238  140.4617  169.7713 C.ar    1  UNL1        0.0383
      4 C         139.3671  139.9559  168.3804 C.ar    1  UNL1        0.1386
      5 C         140.6134  140.3520  167.6457 C.ar    1  UNL1        0.0383
      6 C         141.6164  141.2538  168.3020 C.ar    1  UNL1        0.0230
      7 N         143.3789  143.5635  171.0056 N.3     1  UNL1       -0.2035
      8 S         142.3759  142.6616  170.3493 S.O2    1  UNL1        0.0572
      9 O         143.0938  142.8152  169.0412 O.2     1  UNL1       -0.1532
     10 O         141.6581  142.5079  171.6574 O.2     1  UNL1       -0.1532
     11 H         143.6307  144.3155  170.3642 H       1  UNL1        0.1442
     12 H         144.2128  143.0272  171.2450 H       1  UNL1        0.1442
     13 O         138.3642  139.0540  167.7241 O.3     1  UNL1       -0.4754
     14 C         138.2191  139.0543  166.2311 C.3     1  UNL1        0.2068
     15 C         138.7019  137.8814  165.4304 C.3     1  UNL1        0.0646
     16 C         139.6296  138.0954  164.2713 C.3     1  UNL1        0.0759
     17 N         140.9563  138.7616  164.4856 N.3     1  UNL1       -0.2726
     18 C         142.0658  138.0204  165.1710 C.3     1  UNL1        0.0721
     19 C         143.3925  138.6867  165.3853 C.3     1  UNL1        0.0174
     20 C         143.6098  140.0941  164.9142 C.3     1  UNL1        0.0029
     21 C         142.5004  140.8353  164.2288 C.3     1  UNL1        0.0174
     22 C         141.1736  140.1691  164.0145 C.3     1  UNL1        0.0721
@<TRIPOS>BOND
     1     7     8    1
     2     8     9    2
     3     8    10    2
     4     8     1    1
     5     1     2   ar
     6     2     3   ar
     7     3     4   ar
     8     4    13    1
     9    13    14    1
    10    14    15    1
    11    15    16    1
    12    16    17    1
    13    17    18    1
    14    18    19    1
    15    19    20    1
    16    20    21    1
    17    21    22    1
    18     4     5   ar
    19     5     6   ar
    20     6     1   ar
    21    22    17    1
    22     7    11    1
    23     7    12    1
@<TRIPOS>MOLECULE
*****
 22 23 0 0 0
SMALL
GASTEIGER

@<TRIPOS>ATOM
      1 C         140.8632  142.7944  169.2807 C.ar    1  UNL1        0.1219
      2 C         140.3324  142.6845  167.8821 C.ar    1  UNL1        0.0230
      3 C         141.2661  142.3850  166.7470 C.ar    1  UNL1        0.0383
      4 C         142.7305  142.1953  167.0104 C.ar    1  UNL1        0.1386
      5 C         143.2613  142.3052  168.4090 C.ar    1  UNL1        0.0383
      6 C         142.3276  142.6048  169.5442 C.ar    1  UNL1        0.0230
      7 N         138.9959  143.3935  171.5510 N.3     1  UNL1       -0.2035
      8 S         139.9295  143.0940  170.4159 S.O2    1  UNL1        0.0572
      9 O         140.1477  144.5633  170.2076 O.2     1  UNL1       -0.1532
     10 O         139.7113  141.6246  170.6242 O.2     1  UNL1       -0.1532
     11 H         138.4381  144.2169  171.3243 H       1  UNL1        0.1442
     12 H         139.5361  143.5715  172.3977 H       1  UNL1        0.1442
     13 O         143.6642  141.8958  165.8753 O.3     1  UNL1       -0.4754
     14 C         143.1244  141.7182  164.4871 C.3     1  UNL1        0.2068
     15 C         143.0812  142.8842  163.5444 C.3     1  UNL1        0.0646
     16 C         141.8481  143.1461  162.7314 C.3     1  UNL1        0.0759
     17 N         140.5325  143.3718  163.4159 N.3     1  UNL1       -0.2726
     18 C         139.4861  142.2972  163.4027 C.3     1  UNL1        0.0721
     19 C         138.1706  142.5229  164.0871 C.3     1  UNL1        0.0174
     20 C         137.9015  143.8232  164.7847 C.3     1  UNL1        0.0029
     21 C         138.9479  144.8979  164.7980 C.3     1  UNL1        0.0174
     22 C         140.2634  144.6722  164.1135 C.3     1  UNL1        0.0721
@<TRIPOS>BOND
     1     7     8    1
     2     8     9    2
     3     8    10    2
     4     8     1    1
     5     1     2   ar
     6     2     3   ar
     7     3     4   ar
     8     4    13    1
     9    13    14    1
    10    14    15    1
    11    15    16    1
    12    16    17    1
    13    17    18    1
    14    18    19    1
    15    19    20    1
    16    20    21    1
    17    21    22    1
    18     4     5   ar
    19     5     6   ar
    20     6     1   ar
    21    22    17    1
    22     7    11    1
    23     7    12    1
@<TRIPOS>MOLECULE
*****
 22 23 0 0 0
SMALL
GASTEIGER

@<TRIPOS>ATOM
      1 C         141.4730  141.7842  169.7507 C.ar    1  UNL1        0.1219
      2 C         140.1612  141.5322  170.4330 C.ar    1  UNL1        0.0230
      3 C         139.1466  140.6285  169.7975 C.ar    1  UNL1        0.0383
      4 C         139.4438  139.9766  168.4797 C.ar    1  UNL1        0.1386
      5 C         140.7557  140.2286  167.7974 C.ar    1  UNL1        0.0383
      6 C         141.7702  141.1323  168.4329 C.ar    1  UNL1        0.0230
      7 N         143.5021  143.5917  171.0217 N.3     1  UNL1       -0.2035
      8 S         142.4875  142.6879  170.3862 S.O2    1  UNL1        0.0572
      9 O         143.1889  142.8278  169.0677 O.2     1  UNL1       -0.1532
     10 O         141.7862  142.5481  171.7048 O.2     1  UNL1       -0.1532
     11 H         143.7483  144.3373  170.3707 H       1  UNL1        0.1442
     12 H         144.3372  143.0545  171.2550 H       1  UNL1        0.1442
     13 O         138.4293  139.0729  167.8442 O.3     1  UNL1       -0.4754
     14 C         138.5073  138.7725  166.3767 C.3     1  UNL1        0.2068
     15 C         138.0691  139.8007  165.3763 C.3     1  UNL1        0.0646
     16 C         139.0735  140.4248  164.4533 C.3     1  UNL1        0.0759
     17 N         139.0810  141.9106  164.2473 N.3     1  UNL1       -0.2726
     18 C         138.7223  142.4839  162.9084 C.3     1  UNL1        0.0721
     19 C         138.7298  143.9697  162.7024 C.3     1  UNL1        0.0174
     20 C         139.0960  144.8821  163.8352 C.3     1  UNL1        0.0029
     21 C         139.4547  144.3088  165.1742 C.3     1  UNL1        0.0174
     22 C         139.4472  142.8230  165.3802 C.3     1  UNL1        0.0721
@<TRIPOS>BOND
     1     7     8    1
     2     8     9    2
     3     8    10    2
     4     8     1    1
     5     1     2   ar
     6     2     3   ar
     7     3     4   ar
     8     4    13    1
     9    13    14    1
    10    14    15    1
    11    15    16    1
    12    16    17    1
    13    17    18    1
    14    18    19    1
    15    19    20    1
    16    20    21    1
    17    21    22    1
    18     4     5   ar
    19     5     6   ar
    20     6     1   ar
    21    22    17    1
    22     7    11    1
    23     7    12    1
@<TRIPOS>MOLECULE
*****
 22 23 0 0 0
SMALL
GASTEIGER

@<TRIPOS>ATOM
      1 C         140.5019  140.0566  169.0190 C.ar    1  UNL1        0.1219
      2 C         141.7264  139.9307  168.1619 C.ar    1  UNL1        0.0230
      3 C         141.5910  139.6087  166.7031 C.ar    1  UNL1        0.0383
      4 C         140.2311  139.4125  166.1015 C.ar    1  UNL1        0.1386
      5 C         139.0066  139.5383  166.9585 C.ar    1  UNL1        0.0383
      6 C         139.1419  139.8603  168.4173 C.ar    1  UNL1        0.0230
      7 N         140.7726  140.7006  171.9365 N.3     1  UNL1       -0.2035
      8 S         140.6372  140.3786  170.4777 S.O2    1  UNL1        0.0572
      9 O         142.0034  140.9446  170.2260 O.2     1  UNL1       -0.1532
     10 O         139.2711  139.8126  170.7294 O.2     1  UNL1       -0.1532
     11 H         141.2535  141.5937  172.0443 H       1  UNL1        0.1442
     12 H         141.3102  139.9670  172.3981 H       1  UNL1        0.1442
     13 O         140.0957  139.0904  164.6427 O.3     1  UNL1       -0.4754
     14 C         138.7360  138.8904  164.0418 C.3     1  UNL1        0.2068
     15 C         138.2998  139.7294  162.8774 C.3     1  UNL1        0.0646
     16 C         139.0586  140.9741  162.5238 C.3     1  UNL1        0.0759
     17 N         139.0356  142.1548  163.4487 N.3     1  UNL1       -0.2726
     18 C         140.2803  142.5569  164.1828 C.3     1  UNL1        0.0721
     19 C         140.2573  143.7376  165.1077 C.3     1  UNL1        0.0174
     20 C         138.9895  144.5161  165.2986 C.3     1  UNL1        0.0029
     21 C         137.7446  144.1140  164.5645 C.3     1  UNL1        0.0174
     22 C         137.7677  142.9334  163.6396 C.3     1  UNL1        0.0721
@<TRIPOS>BOND
     1     7     8    1
     2     8     9    2
     3     8    10    2
     4     8     1    1
     5     1     2   ar
     6     2     3   ar
     7     3     4   ar
     8     4    13    1
     9    13    14    1
    10    14    15    1
    11    15    16    1
    12    16    17    1
    13    17    18    1
    14    18    19    1
    15    19    20    1
    16    20    21    1
    17    21    22    1
    18     4     5   ar
    19     5     6   ar
    20     6     1   ar
    21    22    17    1
    22     7    11    1
    23     7    12    1
@<TRIPOS>MOLECULE
*****
 22 23 0 0 0
SMALL
GASTEIGER

@<TRIPOS>ATOM
      1 C         141.0058  141.8774  169.7480 C.ar    1  UNL1        0.1219
      2 C         140.8569  140.4604  170.2169 C.ar    1  UNL1        0.0230
      3 C         141.6538  139.3679  169.5677 C.ar    1  UNL1        0.0383
      4 C         142.5995  139.6924  168.4496 C.ar    1  UNL1        0.1386
      5 C         142.7484  141.1094  167.9807 C.ar    1  UNL1        0.0383
      6 C         141.9516  142.2019  168.6299 C.ar    1  UNL1        0.0230
      7 N         139.4121  144.0624  171.0465 N.3     1  UNL1       -0.2035
      8 S         140.2090  142.9699  170.3973 S.O2    1  UNL1        0.0572
      9 O         140.3398  142.2782  171.7218 O.2     1  UNL1       -0.1532
     10 O         140.0781  143.6616  169.0727 O.2     1  UNL1       -0.1532
     11 H         139.7975  144.2617  171.9696 H       1  UNL1        0.1442
     12 H         138.4410  143.7650  171.1404 H       1  UNL1        0.1442
     13 O         143.3964  138.5999  167.8004 O.3     1  UNL1       -0.4754
     14 C         143.5481  138.5674  166.3085 C.3     1  UNL1        0.2068
     15 C         142.3601  138.2773  165.4399 C.3     1  UNL1        0.0646
     16 C         141.9713  139.2382  164.3556 C.3     1  UNL1        0.0759
     17 N         141.4453  140.5972  164.7110 N.3     1  UNL1       -0.2726
     18 C         142.2502  141.8210  164.3878 C.3     1  UNL1        0.0721
     19 C         141.7242  143.1801  164.7432 C.3     1  UNL1        0.0174
     20 C         140.3933  143.3153  165.4217 C.3     1  UNL1        0.0029
     21 C         139.5883  142.0915  165.7449 C.3     1  UNL1        0.0174
     22 C         140.1143  140.7324  165.3895 C.3     1  UNL1        0.0721
@<TRIPOS>BOND
     1     7     8    1
     2     8     9    2
     3     8    10    2
     4     8     1    1
     5     1     2   ar
     6     2     3   ar
     7     3     4   ar
     8     4    13    1
     9    13    14    1
    10    14    15    1
    11    15    16    1
    12    16    17    1
    13    17    18    1
    14    18    19    1
    15    19    20    1
    16    20    21    1
    17    21    22    1
    18     4     5   ar
    19     5     6   ar
    20     6     1   ar
    21    22    17    1
    22     7    11    1
    23     7    12    1
@<TRIPOS>MOLECULE
*****
 22 23 0 0 0
SMALL
GASTEIGER

@<TRIPOS>ATOM
      1 C         141.5012  141.4919  169.4564 C.ar    1  UNL1        0.1219
      2 C         141.0556  140.2360  168.7678 C.ar    1  UNL1        0.0230
      3 C         141.5801  139.9028  167.4025 C.ar    1  UNL1        0.0383
      4 C         142.5501  140.8254  166.7259 C.ar    1  UNL1        0.1386
      5 C         142.9957  142.0812  167.4146 C.ar    1  UNL1        0.0383
      6 C         142.4713  142.4145  168.7799 C.ar    1  UNL1        0.0230
      7 N         140.4523  142.1583  172.1869 N.3     1  UNL1       -0.2035
      8 S         140.9768  141.8251  170.8217 S.O2    1  UNL1        0.0572
      9 O         142.1346  142.7534  171.0399 O.2     1  UNL1       -0.1532
     10 O         139.8189  140.8967  170.6035 O.2     1  UNL1       -0.1532
     11 H         140.6026  143.1492  172.3764 H       1  UNL1        0.1442
     12 H         140.9434  141.6003  172.8854 H       1  UNL1        0.1442
     13 O         143.0746  140.4922  165.3607 O.3     1  UNL1       -0.4754
     14 C         142.9757  141.4988  164.2530 C.3     1  UNL1        0.2068
     15 C         141.6343  142.0219  163.8325 C.3     1  UNL1        0.0646
     16 C         140.6236  141.0938  163.2265 C.3     1  UNL1        0.0759
     17 N         139.9077  140.0976  164.0897 N.3     1  UNL1       -0.2726
     18 C         138.8306  140.5553  165.0278 C.3     1  UNL1        0.0721
     19 C         138.1146  139.5591  165.8910 C.3     1  UNL1        0.0174
     20 C         138.4759  138.1053  165.8160 C.3     1  UNL1        0.0029
     21 C         139.5531  137.6475  164.8778 C.3     1  UNL1        0.0174
     22 C         140.2690  138.6437  164.0146 C.3     1  UNL1        0.0721
@<TRIPOS>BOND
     1     7     8    1
     2     8     9    2
     3     8    10    2
     4     8     1    1
     5     1     2   ar
     6     2     3   ar
     7     3     4   ar
     8     4    13    1
     9    13    14    1
    10    14    15    1
    11    15    16    1
    12    16    17    1
    13    17    18    1
    14    18    19    1
    15    19    20    1
    16    20    21    1
    17    21    22    1
    18     4     5   ar
    19     5     6   ar
    20     6     1   ar
    21    22    17    1
    22     7    11    1
    23     7    12    1
@<TRIPOS>MOLECULE
*****
 22 23 0 0 0
SMALL
GASTEIGER

@<TRIPOS>ATOM
      1 C         142.6123  141.3251  168.9816 C.ar    1  UNL1        0.1219
      2 C         142.9298  142.2824  167.8713 C.ar    1  UNL1        0.0230
      3 C         143.1590  141.7688  166.4808 C.ar    1  UNL1        0.0383
      4 C         143.0708  140.2979  166.2005 C.ar    1  UNL1        0.1386
      5 C         142.7533  139.3406  167.3107 C.ar    1  UNL1        0.0383
      6 C         142.5240  139.8542  168.7013 C.ar    1  UNL1        0.0230
      7 N         142.1537  142.3523  171.7627 N.3     1  UNL1       -0.2035
      8 S         142.3830  141.8387  170.3721 S.O2    1  UNL1        0.0572
      9 O         141.6452  140.5788  170.7158 O.2     1  UNL1       -0.1532
     10 O         143.1208  143.0987  170.0284 O.2     1  UNL1       -0.1532
     11 H         142.2379  141.5832  172.4274 H       1  UNL1        0.1442
     12 H         141.2191  142.7558  171.8263 H       1  UNL1        0.1442
     13 O         143.3001  139.7843  164.8099 O.3     1  UNL1       -0.4754
     14 C         144.6701  139.8496  164.2026 C.3     1  UNL1        0.2068
     15 C         144.9099  140.6867  162.9812 C.3     1  UNL1        0.0646
     16 C         143.7573  141.3546  162.2916 C.3     1  UNL1        0.0759
     17 N         143.2125  142.6473  162.8227 N.3     1  UNL1       -0.2726
     18 C         141.7547  142.7666  163.1550 C.3     1  UNL1        0.0721
     19 C         141.2099  144.0594  163.6861 C.3     1  UNL1        0.0174
     20 C         142.1229  145.2328  163.8849 C.3     1  UNL1        0.0029
     21 C         143.5808  145.1135  163.5525 C.3     1  UNL1        0.0174
     22 C         144.1256  143.8207  163.0214 C.3     1  UNL1        0.0721
@<TRIPOS>BOND
     1     7     8    1
     2     8     9    2
     3     8    10    2
     4     8     1    1
     5     1     2   ar
     6     2     3   ar
     7     3     4   ar
     8     4    13    1
     9    13    14    1
    10    14    15    1
    11    15    16    1
    12    16    17    1
    13    17    18    1
    14    18    19    1
    15    19    20    1
    16    20    21    1
    17    21    22    1
    18     4     5   ar
    19     5     6   ar
    20     6     1   ar
    21    22    17    1
    22     7    11    1
    23     7    12    1
@<TRIPOS>MOLECULE
*****
 22 23 0 0 0
SMALL
GASTEIGER

@<TRIPOS>ATOM
      1 C         141.1436  139.9867  169.0109 C.ar    1  UNL1        0.1219
      2 C         140.0315  140.1770  168.0224 C.ar    1  UNL1        0.0230
      3 C         140.2793  139.9460  166.5611 C.ar    1  UNL1        0.0383
      4 C         141.6391  139.5249  166.0883 C.ar    1  UNL1        0.1386
      5 C         142.7511  139.3346  167.0768 C.ar    1  UNL1        0.0383
      6 C         142.5033  139.5656  168.5381 C.ar    1  UNL1        0.0230
      7 N         140.6481  140.4486  171.9334 N.3     1  UNL1       -0.2035
      8 S         140.8958  140.2176  170.4721 S.O2    1  UNL1        0.0572
      9 O         139.5131  139.6546  170.3267 O.2     1  UNL1       -0.1532
     10 O         142.2785  140.7807  170.6176 O.2     1  UNL1       -0.1532
     11 H         140.1023  139.6746  172.3122 H       1  UNL1        0.1442
     12 H         140.1332  141.3203  172.0574 H       1  UNL1        0.1442
     13 O         141.8868  139.2939  164.6271 O.3     1  UNL1       -0.4754
     14 C         143.1223  138.5696  164.1811 C.3     1  UNL1        0.2068
     15 C         144.0719  139.2259  163.2232 C.3     1  UNL1        0.0646
     16 C         145.0384  140.2615  163.7165 C.3     1  UNL1        0.0759
     17 N         144.6490  141.7101  163.7191 N.3     1  UNL1       -0.2726
     18 C         144.1605  142.3531  164.9832 C.3     1  UNL1        0.0721
     19 C         143.7711  143.8017  164.9858 C.3     1  UNL1        0.0174
     20 C         143.8701  144.6072  163.7244 C.3     1  UNL1        0.0029
     21 C         144.3585  143.9642  162.4602 C.3     1  UNL1        0.0174
     22 C         144.7480  142.5156  162.4576 C.3     1  UNL1        0.0721
@<TRIPOS>BOND
     1     7     8    1
     2     8     9    2
     3     8    10    2
     4     8     1    1
     5     1     2   ar
     6     2     3   ar
     7     3     4   ar
     8     4    13    1
     9    13    14    1
    10    14    15    1
    11    15    16    1
    12    16    17    1
    13    17    18    1
    14    18    19    1
    15    19    20    1
    16    20    21    1
    17    21    22    1
    18     4     5   ar
    19     5     6   ar
    20     6     1   ar
    21    22    17    1
    22     7    11    1
    23     7    12    1
