@<TRIPOS>MOLECULE
*****
 39 42 0 0 0
SMALL
GASTEIGER

@<TRIPOS>ATOM
      1 C         134.9821  139.8976  154.9637 C.3     1  UNL1        0.0437
      2 C         135.7796  141.1489  155.1840 C.3     1  UNL1        0.1368
      3 C         135.1205  141.4864  153.8794 C.3     1  UNL1        0.0437
      4 C         136.3481  142.5173  154.9512 C.3     1  UNL1        0.0643
      5 C         137.2988  143.1137  155.9465 C.3     1  UNL1        0.1021
      6 C         137.6809  142.3417  157.1744 C.ar    1  UNL1        0.0488
      7 C         138.6316  142.9381  158.1697 C.ar    1  UNL1        0.0034
      8 C         139.0138  142.1661  159.3977 C.ar    1  UNL1        0.0177
      9 C         138.4452  140.7976  159.6304 C.ar    1  UNL1        0.0851
     10 N         137.4945  140.2012  158.6352 N.ar    1  UNL1       -0.2119
     11 C         137.1124  140.9733  157.4072 C.ar    1  UNL1        0.2219
     12 O         136.1617  140.3769  156.4119 O.3     1  UNL1       -0.4676
     13 C         138.8274  140.0256  160.8584 C.ar    1  UNL1        0.0284
     14 C         139.9328  139.0137  160.7944 C.ar    1  UNL1        0.0032
     15 C         140.3150  138.2417  162.0223 C.ar    1  UNL1        0.0115
     16 C         139.5917  138.4816  163.3144 C.ar    1  UNL1        0.0585
     17 CL        139.9739  137.7096  164.5423 Cl      1  UNL1       -0.0822
     18 C         138.4863  139.4935  163.3785 C.ar    1  UNL1        0.0228
     19 C         138.1041  140.2655  162.1504 C.ar    1  UNL1        0.0599
     20 CL        137.5088  140.7478  162.3706 Cl      1  UNL1       -0.0822
     21 C         139.9645  142.7625  160.3929 C.ar    1  UNL1        0.0015
     22 C         141.4290  142.4479  160.3129 C.ar    1  UNL1        0.0009
     23 C         142.3796  143.0443  161.3081 C.ar    1  UNL1        0.0114
     24 C         141.8658  143.9553  162.3834 C.ar    1  UNL1        0.0577
     25 CL        142.8165  144.5517  163.3786 Cl      1  UNL1       -0.0822
     26 C         140.4014  144.2699  162.4633 C.ar    1  UNL1        0.0114
     27 C         139.4507  143.6735  161.4681 C.ar    1  UNL1        0.0009
     28 N         137.8673  144.4822  155.7137 N.am    1  UNL1       -0.2998
     29 C         139.1838  144.6379  155.0119 C.2     1  UNL1        0.2552
     30 O         139.7936  143.3271  154.6120 O.2     1  UNL1       -0.2723
     31 H         137.3764  145.2781  156.0216 H       1  UNL1        0.1498
     32 C         139.7523  146.0064  154.7791 C.3     1  UNL1        0.2443
     33 C         140.3208  147.3748  154.5463 C.3     1  UNL1        0.0478
     34 O         139.7792  145.7440  153.3025 O.3     1  UNL1       -0.3719
     35 H         140.4788  146.2762  152.8922 H       1  UNL1        0.2111
     36 C         139.7255  146.2688  156.2557 C.3     1  UNL1        0.4274
     37 F         139.6986  146.5312  157.7324 F       1  UNL1       -0.1671
     38 F         138.6925  147.3362  156.0472 F       1  UNL1       -0.1671
     39 F         140.7475  145.2413  156.6426 F       1  UNL1       -0.1671
@<TRIPOS>BOND
     1     1     2    1
     2     2     3    1
     3     2     4    1
     4     4     5    1
     5     5    28    1
     6    28    29   am
     7    29    30    2
     8    29    32    1
     9    32    33    1
    10    32    34    1
    11    32    36    1
    12    36    37    1
    13    36    38    1
    14    36    39    1
    15     5     6    1
    16     6     7   ar
    17     7     8   ar
    18     8    21    1
    19    21    22   ar
    20    22    23   ar
    21    23    24   ar
    22    24    25    1
    23    24    26   ar
    24    26    27   ar
    25     8     9   ar
    26     9    13    1
    27    13    14   ar
    28    14    15   ar
    29    15    16   ar
    30    16    17    1
    31    16    18   ar
    32    18    19   ar
    33    19    20    1
    34     9    10   ar
    35    10    11   ar
    36    11    12    1
    37    12     2    1
    38    11     6   ar
    39    27    21   ar
    40    19    13   ar
    41    28    31    1
    42    34    35    1
@<TRIPOS>MOLECULE
*****
 39 42 0 0 0
SMALL
GASTEIGER

@<TRIPOS>ATOM
      1 C         137.2643  138.8508  153.9414 C.3     1  UNL1        0.0437
      2 C         137.3840  140.2559  154.4526 C.3     1  UNL1        0.1368
      3 C         136.9330  140.5273  153.0480 C.3     1  UNL1        0.0437
      4 C         137.3470  141.7552  154.4760 C.3     1  UNL1        0.0643
      5 C         137.7195  142.4952  155.7265 C.3     1  UNL1        0.1021
      6 C         138.1290  141.7359  156.9535 C.ar    1  UNL1        0.0488
      7 C         138.5015  142.4759  158.2040 C.ar    1  UNL1        0.0034
      8 C         138.9109  141.7166  159.4311 C.ar    1  UNL1        0.0177
      9 C         138.9479  140.2172  159.4077 C.ar    1  UNL1        0.0851
     10 N         138.5754  139.4772  158.1573 N.ar    1  UNL1       -0.2119
     11 C         138.1659  140.2366  156.9301 C.ar    1  UNL1        0.2219
     12 O         137.7934  139.4966  155.6797 O.3     1  UNL1       -0.4676
     13 C         139.3573  139.4578  160.6348 C.ar    1  UNL1        0.0284
     14 C         140.8106  139.2162  160.9172 C.ar    1  UNL1        0.0032
     15 C         141.2200  138.4569  162.1442 C.ar    1  UNL1        0.0115
     16 C         140.1762  137.9392  163.0890 C.ar    1  UNL1        0.0585
     17 CL        140.5857  137.1798  164.3160 Cl      1  UNL1       -0.0822
     18 C         138.7230  138.1808  162.8066 C.ar    1  UNL1        0.0228
     19 C         138.3135  138.9401  161.5795 C.ar    1  UNL1        0.0599
     20 CL        137.5171  138.9699  161.5952 Cl      1  UNL1       -0.0822
     21 C         139.2834  142.4566  160.6815 C.ar    1  UNL1        0.0015
     22 C         140.6924  142.9310  160.8807 C.ar    1  UNL1        0.0009
     23 C         141.0649  143.6710  162.1312 C.ar    1  UNL1        0.0114
     24 C         140.0284  143.9366  163.1824 C.ar    1  UNL1        0.0577
     25 CL        140.4009  144.6766  164.4329 Cl      1  UNL1       -0.0822
     26 C         138.6194  143.4622  162.9832 C.ar    1  UNL1        0.0114
     27 C         138.2469  142.7222  161.7328 C.ar    1  UNL1        0.0009
     28 N         137.6826  143.9947  155.7498 N.am    1  UNL1       -0.2998
     29 C         138.9107  144.7807  155.3979 C.2     1  UNL1        0.2552
     30 O         140.0825  143.9120  155.0485 O.2     1  UNL1       -0.2723
     31 H         136.8523  144.4628  155.9961 H       1  UNL1        0.1498
     32 C         138.8737  146.2801  155.4212 C.3     1  UNL1        0.2443
     33 C         138.8367  147.7795  155.4446 C.3     1  UNL1        0.0478
     34 O         137.5577  146.2589  154.7017 O.3     1  UNL1       -0.3719
     35 H         137.4535  147.0788  154.1941 H       1  UNL1        0.2111
     36 C         140.1897  146.3014  156.1407 C.3     1  UNL1        0.4274
     37 F         141.5057  146.3227  156.8603 F       1  UNL1       -0.1671
     38 F         140.8490  146.8672  154.9180 F       1  UNL1       -0.1671
     39 F         139.6956  145.7424  157.4421 F       1  UNL1       -0.1671
@<TRIPOS>BOND
     1     1     2    1
     2     2     3    1
     3     2     4    1
     4     4     5    1
     5     5    28    1
     6    28    29   am
     7    29    30    2
     8    29    32    1
     9    32    33    1
    10    32    34    1
    11    32    36    1
    12    36    37    1
    13    36    38    1
    14    36    39    1
    15     5     6    1
    16     6     7   ar
    17     7     8   ar
    18     8    21    1
    19    21    22   ar
    20    22    23   ar
    21    23    24   ar
    22    24    25    1
    23    24    26   ar
    24    26    27   ar
    25     8     9   ar
    26     9    13    1
    27    13    14   ar
    28    14    15   ar
    29    15    16   ar
    30    16    17    1
    31    16    18   ar
    32    18    19   ar
    33    19    20    1
    34     9    10   ar
    35    10    11   ar
    36    11    12    1
    37    12     2    1
    38    11     6   ar
    39    27    21   ar
    40    19    13   ar
    41    28    31    1
    42    34    35    1
@<TRIPOS>MOLECULE
*****
 39 42 0 0 0
SMALL
GASTEIGER

@<TRIPOS>ATOM
      1 C         146.3015  142.6690  154.9965 C.3     1  UNL1        0.0437
      2 C         145.3297  141.5601  155.2724 C.3     1  UNL1        0.1368
      3 C         145.5235  141.3754  153.7965 C.3     1  UNL1        0.0437
      4 C         144.4253  140.3871  155.0358 C.3     1  UNL1        0.0643
      5 C         143.6645  139.7839  156.1792 C.3     1  UNL1        0.1021
      6 C         143.8082  140.3538  157.5593 C.ar    1  UNL1        0.0488
      7 C         143.0474  139.7506  158.7027 C.ar    1  UNL1        0.0034
      8 C         143.1911  140.3204  160.0828 C.ar    1  UNL1        0.0177
      9 C         144.0955  141.4935  160.3195 C.ar    1  UNL1        0.0851
     10 N         144.8563  142.0967  159.1761 N.ar    1  UNL1       -0.2119
     11 C         144.7126  141.5268  157.7959 C.ar    1  UNL1        0.2219
     12 O         145.4734  142.1300  156.6525 O.3     1  UNL1       -0.4676
     13 C         144.2392  142.0633  161.6995 C.ar    1  UNL1        0.0284
     14 C         145.2158  141.4571  162.6634 C.ar    1  UNL1        0.0032
     15 C         145.3595  142.0270  164.0434 C.ar    1  UNL1        0.0115
     16 C         144.5266  143.2030  164.4598 C.ar    1  UNL1        0.0585
     17 CL        144.6702  143.7728  165.8398 Cl      1  UNL1       -0.0822
     18 C         143.5500  143.8091  163.4960 C.ar    1  UNL1        0.0228
     19 C         143.4063  143.2393  162.1159 C.ar    1  UNL1        0.0599
     20 CL        142.8515  143.6815  161.7523 Cl      1  UNL1       -0.0822
     21 C         142.4303  139.7172  161.2262 C.ar    1  UNL1        0.0015
     22 C         141.1027  140.2882  161.6280 C.ar    1  UNL1        0.0009
     23 C         140.3419  139.6851  162.7714 C.ar    1  UNL1        0.0114
     24 C         140.9088  138.5109  163.5131 C.ar    1  UNL1        0.0577
     25 CL        140.1481  137.9077  164.6565 Cl      1  UNL1       -0.0822
     26 C         142.2364  137.9399  163.1113 C.ar    1  UNL1        0.0114
     27 C         142.9972  138.5431  161.9678 C.ar    1  UNL1        0.0009
     28 N         142.7601  138.6109  155.9425 N.am    1  UNL1       -0.2998
     29 C         143.3442  137.2584  155.6605 C.2     1  UNL1        0.2552
     30 O         144.8441  137.2579  155.6519 O.2     1  UNL1       -0.2723
     31 H         141.7831  138.7287  155.9723 H       1  UNL1        0.1498
     32 C         142.4397  136.0853  155.4238 C.3     1  UNL1        0.2443
     33 C         141.5353  134.9123  155.1871 C.3     1  UNL1        0.0478
     34 O         141.5979  136.9199  154.5047 O.3     1  UNL1       -0.3719
     35 H         140.6895  136.5799  154.5004 H       1  UNL1        0.2111
     36 C         143.2815  135.2508  156.3429 C.3     1  UNL1        0.4274
     37 F         144.1233  134.4162  157.2621 F       1  UNL1       -0.1671
     38 F         143.7129  134.4061  155.1809 F       1  UNL1       -0.1671
     39 F         142.9559  135.9875  157.6084 F       1  UNL1       -0.1671
@<TRIPOS>BOND
     1     1     2    1
     2     2     3    1
     3     2     4    1
     4     4     5    1
     5     5    28    1
     6    28    29   am
     7    29    30    2
     8    29    32    1
     9    32    33    1
    10    32    34    1
    11    32    36    1
    12    36    37    1
    13    36    38    1
    14    36    39    1
    15     5     6    1
    16     6     7   ar
    17     7     8   ar
    18     8    21    1
    19    21    22   ar
    20    22    23   ar
    21    23    24   ar
    22    24    25    1
    23    24    26   ar
    24    26    27   ar
    25     8     9   ar
    26     9    13    1
    27    13    14   ar
    28    14    15   ar
    29    15    16   ar
    30    16    17    1
    31    16    18   ar
    32    18    19   ar
    33    19    20    1
    34     9    10   ar
    35    10    11   ar
    36    11    12    1
    37    12     2    1
    38    11     6   ar
    39    27    21   ar
    40    19    13   ar
    41    28    31    1
    42    34    35    1
@<TRIPOS>MOLECULE
*****
 39 42 0 0 0
SMALL
GASTEIGER

@<TRIPOS>ATOM
      1 C         144.0129  135.6247  156.0088 C.3     1  UNL1        0.0437
      2 C         142.8451  136.5660  155.9884 C.3     1  UNL1        0.1368
      3 C         142.9013  136.1891  154.5376 C.3     1  UNL1        0.0437
      4 C         141.6969  137.3763  155.4642 C.3     1  UNL1        0.0643
      5 C         140.8981  138.2367  156.3978 C.3     1  UNL1        0.1021
      6 C         141.2475  138.2867  157.8557 C.ar    1  UNL1        0.0488
      7 C         140.4487  139.1471  158.7893 C.ar    1  UNL1        0.0034
      8 C         140.7980  139.1971  160.2471 C.ar    1  UNL1        0.0177
      9 C         141.9463  138.3867  160.7715 C.ar    1  UNL1        0.0851
     10 N         142.7451  137.5263  159.8378 N.ar    1  UNL1       -0.2119
     11 C         142.3957  137.4763  158.3799 C.ar    1  UNL1        0.2219
     12 O         143.1945  136.6160  157.4463 O.3     1  UNL1       -0.4676
     13 C         142.2956  138.4367  162.2293 C.ar    1  UNL1        0.0284
     14 C         143.4115  139.3201  162.7033 C.ar    1  UNL1        0.0032
     15 C         143.7608  139.3701  164.1612 C.ar    1  UNL1        0.0115
     16 C         142.9944  138.5367  165.1451 C.ar    1  UNL1        0.0585
     17 CL        143.3438  138.5867  166.6029 Cl      1  UNL1       -0.0822
     18 C         141.8787  137.6533  164.6712 C.ar    1  UNL1        0.0228
     19 C         141.5292  137.6033  163.2132 C.ar    1  UNL1        0.0599
     20 CL        140.9229  137.0896  163.1501 Cl      1  UNL1       -0.0822
     21 C         139.9992  140.0575  161.1807 C.ar    1  UNL1        0.0015
     22 C         140.4968  141.4226  161.5534 C.ar    1  UNL1        0.0009
     23 C         139.6979  142.2830  162.4870 C.ar    1  UNL1        0.0114
     24 C         138.4015  141.7782  163.0480 C.ar    1  UNL1        0.0577
     25 CL        137.6027  142.6386  163.9816 Cl      1  UNL1       -0.0822
     26 C         137.9041  140.4131  162.6754 C.ar    1  UNL1        0.0114
     27 C         138.7029  139.5527  161.7417 C.ar    1  UNL1        0.0009
     28 N         139.7499  139.0471  155.8735 N.am    1  UNL1       -0.2998
     29 C         138.4596  138.3732  155.5117 C.2     1  UNL1        0.2552
     30 O         138.4902  136.8902  155.7352 O.2     1  UNL1       -0.2723
     31 H         139.8431  140.0214  155.7669 H       1  UNL1        0.1498
     32 C         137.3114  139.1836  154.9873 C.3     1  UNL1        0.2443
     33 C         136.1632  139.9940  154.4631 C.3     1  UNL1        0.0478
     34 O         137.4990  140.1701  156.1015 O.3     1  UNL1       -0.3719
     35 H         136.6533  140.6042  156.2948 H       1  UNL1        0.2111
     36 C         137.1238  138.1970  153.8731 C.3     1  UNL1        0.4274
     37 F         136.9362  137.2104  152.7589 F       1  UNL1       -0.1671
     38 F         135.8905  137.6715  154.5461 F       1  UNL1       -0.1671
     39 F         138.3250  138.5984  153.0693 F       1  UNL1       -0.1671
@<TRIPOS>BOND
     1     1     2    1
     2     2     3    1
     3     2     4    1
     4     4     5    1
     5     5    28    1
     6    28    29   am
     7    29    30    2
     8    29    32    1
     9    32    33    1
    10    32    34    1
    11    32    36    1
    12    36    37    1
    13    36    38    1
    14    36    39    1
    15     5     6    1
    16     6     7   ar
    17     7     8   ar
    18     8    21    1
    19    21    22   ar
    20    22    23   ar
    21    23    24   ar
    22    24    25    1
    23    24    26   ar
    24    26    27   ar
    25     8     9   ar
    26     9    13    1
    27    13    14   ar
    28    14    15   ar
    29    15    16   ar
    30    16    17    1
    31    16    18   ar
    32    18    19   ar
    33    19    20    1
    34     9    10   ar
    35    10    11   ar
    36    11    12    1
    37    12     2    1
    38    11     6   ar
    39    27    21   ar
    40    19    13   ar
    41    28    31    1
    42    34    35    1
@<TRIPOS>MOLECULE
*****
 39 42 0 0 0
SMALL
GASTEIGER

@<TRIPOS>ATOM
      1 C         136.5256  142.6880  155.4182 C.3     1  UNL1        0.0437
      2 C         137.6948  141.8078  155.7476 C.3     1  UNL1        0.1368
      3 C         137.4871  141.4376  154.3089 C.3     1  UNL1        0.0437
      4 C         138.7917  140.7991  155.5773 C.3     1  UNL1        0.0643
      5 C         139.6904  140.4663  156.7313 C.3     1  UNL1        0.1021
      6 C         139.4920  141.1422  158.0556 C.ar    1  UNL1        0.0488
      7 C         140.3907  140.8093  159.2096 C.ar    1  UNL1        0.0034
      8 C         140.1923  141.4853  160.5338 C.ar    1  UNL1        0.0177
      9 C         139.0953  142.4941  160.7042 C.ar    1  UNL1        0.0851
     10 N         138.1967  142.8269  159.5502 N.ar    1  UNL1       -0.2119
     11 C         138.3951  142.1509  158.2259 C.ar    1  UNL1        0.2219
     12 O         137.4964  142.4837  157.0719 O.3     1  UNL1       -0.4676
     13 C         138.8970  143.1700  162.0284 C.ar    1  UNL1        0.0284
     14 C         139.7011  144.3874  162.3771 C.ar    1  UNL1        0.0032
     15 C         139.5027  145.0633  163.7013 C.ar    1  UNL1        0.0115
     16 C         138.5003  144.5219  164.6771 C.ar    1  UNL1        0.0585
     17 CL        138.3020  145.1978  166.0013 Cl      1  UNL1       -0.0822
     18 C         137.6962  143.3045  164.3285 C.ar    1  UNL1        0.0228
     19 C         137.8945  142.6286  163.0042 C.ar    1  UNL1        0.0599
     20 CL        137.3908  142.0108  162.9952 Cl      1  UNL1       -0.0822
     21 C         141.0910  141.1524  161.6878 C.ar    1  UNL1        0.0015
     22 C         140.6928  140.0866  162.6654 C.ar    1  UNL1        0.0009
     23 C         141.5914  139.7538  163.8194 C.ar    1  UNL1        0.0114
     24 C         142.8882  140.4868  163.9958 C.ar    1  UNL1        0.0577
     25 CL        143.7869  140.1539  165.1498 Cl      1  UNL1       -0.0822
     26 C         143.2864  141.5525  163.0182 C.ar    1  UNL1        0.0114
     27 C         142.3877  141.8853  161.8643 C.ar    1  UNL1        0.0009
     28 N         140.7874  139.4575  156.5609 N.am    1  UNL1       -0.2998
     29 C         140.5669  138.0326  156.9746 C.2     1  UNL1        0.2552
     30 O         139.1976  137.7908  157.5372 O.2     1  UNL1       -0.2723
     31 H         141.6521  139.7306  156.1776 H       1  UNL1        0.1498
     32 C         141.6639  137.0238  156.8043 C.3     1  UNL1        0.2443
     33 C         142.7609  136.0150  156.6339 C.3     1  UNL1        0.0478
     34 O         140.7432  136.1592  155.9952 O.3     1  UNL1       -0.3719
     35 H         141.0164  135.2320  156.0757 H       1  UNL1        0.2111
     36 C         142.5847  137.8884  157.6134 C.3     1  UNL1        0.4274
     37 F         143.5055  138.7530  158.4225 F       1  UNL1       -0.1671
     38 F         143.4601  138.0815  156.4108 F       1  UNL1       -0.1671
     39 F         141.8280  137.8021  158.9057 F       1  UNL1       -0.1671
@<TRIPOS>BOND
     1     1     2    1
     2     2     3    1
     3     2     4    1
     4     4     5    1
     5     5    28    1
     6    28    29   am
     7    29    30    2
     8    29    32    1
     9    32    33    1
    10    32    34    1
    11    32    36    1
    12    36    37    1
    13    36    38    1
    14    36    39    1
    15     5     6    1
    16     6     7   ar
    17     7     8   ar
    18     8    21    1
    19    21    22   ar
    20    22    23   ar
    21    23    24   ar
    22    24    25    1
    23    24    26   ar
    24    26    27   ar
    25     8     9   ar
    26     9    13    1
    27    13    14   ar
    28    14    15   ar
    29    15    16   ar
    30    16    17    1
    31    16    18   ar
    32    18    19   ar
    33    19    20    1
    34     9    10   ar
    35    10    11   ar
    36    11    12    1
    37    12     2    1
    38    11     6   ar
    39    27    21   ar
    40    19    13   ar
    41    28    31    1
    42    34    35    1
@<TRIPOS>MOLECULE
*****
 39 42 0 0 0
SMALL
GASTEIGER

@<TRIPOS>ATOM
      1 C         135.6245  140.6499  156.4683 C.3     1  UNL1        0.0437
      2 C         137.1240  140.6587  156.4306 C.3     1  UNL1        0.1368
      3 C         136.8256  140.8924  154.9793 C.3     1  UNL1        0.0437
      4 C         138.5199  140.7487  155.8889 C.3     1  UNL1        0.0643
      5 C         139.6934  140.6020  156.8116 C.3     1  UNL1        0.1021
      6 C         139.4711  140.3653  158.2760 C.ar    1  UNL1        0.0488
      7 C         140.6446  140.2186  159.1987 C.ar    1  UNL1        0.0034
      8 C         140.4223  139.9819  160.6631 C.ar    1  UNL1        0.0177
      9 C         139.0264  139.8918  161.2049 C.ar    1  UNL1        0.0851
     10 N         137.8529  140.0386  160.2822 N.ar    1  UNL1       -0.2119
     11 C         138.0752  140.2753  158.8177 C.ar    1  UNL1        0.2219
     12 O         136.9017  140.4220  157.8950 O.3     1  UNL1       -0.4676
     13 C         138.8041  139.6551  162.6692 C.ar    1  UNL1        0.0284
     14 C         138.5084  140.8103  163.5794 C.ar    1  UNL1        0.0032
     15 C         138.2861  140.5736  165.0437 C.ar    1  UNL1        0.0115
     16 C         138.3594  139.1817  165.5981 C.ar    1  UNL1        0.0585
     17 CL        138.1371  138.9450  167.0625 Cl      1  UNL1       -0.0822
     18 C         138.6550  138.0266  164.6881 C.ar    1  UNL1        0.0228
     19 C         138.8774  138.2633  163.2236 C.ar    1  UNL1        0.0599
     20 CL        139.0188  137.5467  162.9042 Cl      1  UNL1       -0.0822
     21 C         141.5958  139.8351  161.5857 C.ar    1  UNL1        0.0015
     22 C         142.3024  138.5166  161.6967 C.ar    1  UNL1        0.0009
     23 C         143.4759  138.3699  162.6194 C.ar    1  UNL1        0.0114
     24 C         143.9428  139.5417  163.4311 C.ar    1  UNL1        0.0577
     25 CL        145.1163  139.3950  164.3538 Cl      1  UNL1       -0.0822
     26 C         143.2363  140.8602  163.3201 C.ar    1  UNL1        0.0114
     27 C         142.0627  141.0069  162.3975 C.ar    1  UNL1        0.0009
     28 N         141.0893  140.6920  156.2698 N.am    1  UNL1       -0.2998
     29 C         141.7779  139.4597  155.7629 C.2     1  UNL1        0.2552
     30 O         140.9294  138.2276  155.8712 O.2     1  UNL1       -0.2723
     31 H         141.5534  141.5600  156.2470 H       1  UNL1        0.1498
     32 C         143.1738  139.5497  155.2211 C.3     1  UNL1        0.2443
     33 C         144.5696  139.6398  154.6793 C.3     1  UNL1        0.0478
     34 O         142.8551  140.8876  154.6224 O.3     1  UNL1       -0.3719
     35 H         143.4200  141.0383  153.8484 H       1  UNL1        0.2111
     36 C         143.4925  138.2118  155.8198 C.3     1  UNL1        0.4274
     37 F         143.8113  136.8739  156.4184 F       1  UNL1       -0.1671
     38 F         143.5266  138.8311  157.1855 F       1  UNL1       -0.1671
     39 F         143.4976  137.4341  154.5371 F       1  UNL1       -0.1671
@<TRIPOS>BOND
     1     1     2    1
     2     2     3    1
     3     2     4    1
     4     4     5    1
     5     5    28    1
     6    28    29   am
     7    29    30    2
     8    29    32    1
     9    32    33    1
    10    32    34    1
    11    32    36    1
    12    36    37    1
    13    36    38    1
    14    36    39    1
    15     5     6    1
    16     6     7   ar
    17     7     8   ar
    18     8    21    1
    19    21    22   ar
    20    22    23   ar
    21    23    24   ar
    22    24    25    1
    23    24    26   ar
    24    26    27   ar
    25     8     9   ar
    26     9    13    1
    27    13    14   ar
    28    14    15   ar
    29    15    16   ar
    30    16    17    1
    31    16    18   ar
    32    18    19   ar
    33    19    20    1
    34     9    10   ar
    35    10    11   ar
    36    11    12    1
    37    12     2    1
    38    11     6   ar
    39    27    21   ar
    40    19    13   ar
    41    28    31    1
    42    34    35    1
@<TRIPOS>MOLECULE
*****
 39 42 0 0 0
SMALL
GASTEIGER

@<TRIPOS>ATOM
      1 C         144.3760  144.7430  164.9022 C.3     1  UNL1        0.0437
      2 C         143.5424  143.5274  164.6235 C.3     1  UNL1        0.1368
      3 C         144.0001  143.2154  166.0176 C.3     1  UNL1        0.0437
      4 C         142.8678  142.2036  164.8290 C.3     1  UNL1        0.0643
      5 C         142.0250  141.6138  163.7373 C.3     1  UNL1        0.1021
      6 C         141.8568  142.3479  162.4401 C.ar    1  UNL1        0.0488
      7 C         141.0140  141.7581  161.3483 C.ar    1  UNL1        0.0034
      8 C         140.8459  142.4922  160.0511 C.ar    1  UNL1        0.0177
      9 C         141.5206  143.8161  159.8456 C.ar    1  UNL1        0.0851
     10 N         142.3634  144.4059  160.9373 N.ar    1  UNL1       -0.2119
     11 C         142.5315  143.6717  162.2346 C.ar    1  UNL1        0.2219
     12 O         143.3743  144.2615  163.3263 O.3     1  UNL1       -0.4676
     13 C         141.3524  144.5502  158.5484 C.ar    1  UNL1        0.0284
     14 C         140.2612  145.5685  158.3988 C.ar    1  UNL1        0.0032
     15 C         140.0931  146.3026  157.1016 C.ar    1  UNL1        0.0115
     16 C         141.0161  146.0184  155.9539 C.ar    1  UNL1        0.0585
     17 CL        140.8479  146.7525  154.6567 Cl      1  UNL1       -0.0822
     18 C         142.1072  145.0001  156.1034 C.ar    1  UNL1        0.0228
     19 C         142.2754  144.2660  157.4006 C.ar    1  UNL1        0.0599
     20 CL        142.8942  143.7743  157.2962 Cl      1  UNL1       -0.0822
     21 C         140.0031  141.9025  158.9594 C.ar    1  UNL1        0.0015
     22 C         140.6049  140.9278  157.9909 C.ar    1  UNL1        0.0009
     23 C         139.7621  140.3380  156.8991 C.ar    1  UNL1        0.0114
     24 C         138.3175  140.7229  156.7759 C.ar    1  UNL1        0.0577
     25 CL        137.4747  140.1332  155.6842 Cl      1  UNL1       -0.0822
     26 C         137.7158  141.6976  157.7444 C.ar    1  UNL1        0.0114
     27 C         138.5586  142.2873  158.8361 C.ar    1  UNL1        0.0009
     28 N         141.3503  140.2899  163.9428 N.am    1  UNL1       -0.2998
     29 C         140.0455  140.2194  164.6792 C.2     1  UNL1        0.2552
     30 O         139.5592  141.5615  165.1399 O.2     1  UNL1       -0.2723
     31 H         141.7640  139.4673  163.5944 H       1  UNL1        0.1498
     32 C         139.3708  138.8955  164.8848 C.3     1  UNL1        0.2443
     33 C         138.6962  137.5717  165.0902 C.3     1  UNL1        0.0478
     34 O         139.6239  138.5436  163.4488 O.3     1  UNL1       -0.3719
     35 H         138.9471  137.9187  163.1449 H       1  UNL1        0.2111
     36 C         139.1176  139.2474  166.3207 C.3     1  UNL1        0.4274
     37 F         138.8645  139.5993  167.7568 F       1  UNL1       -0.1671
     38 F         137.6448  139.3136  166.0449 F       1  UNL1       -0.1671
     39 F         140.5488  139.2246  166.7696 F       1  UNL1       -0.1671
@<TRIPOS>BOND
     1     1     2    1
     2     2     3    1
     3     2     4    1
     4     4     5    1
     5     5    28    1
     6    28    29   am
     7    29    30    2
     8    29    32    1
     9    32    33    1
    10    32    34    1
    11    32    36    1
    12    36    37    1
    13    36    38    1
    14    36    39    1
    15     5     6    1
    16     6     7   ar
    17     7     8   ar
    18     8    21    1
    19    21    22   ar
    20    22    23   ar
    21    23    24   ar
    22    24    25    1
    23    24    26   ar
    24    26    27   ar
    25     8     9   ar
    26     9    13    1
    27    13    14   ar
    28    14    15   ar
    29    15    16   ar
    30    16    17    1
    31    16    18   ar
    32    18    19   ar
    33    19    20    1
    34     9    10   ar
    35    10    11   ar
    36    11    12    1
    37    12     2    1
    38    11     6   ar
    39    27    21   ar
    40    19    13   ar
    41    28    31    1
    42    34    35    1
@<TRIPOS>MOLECULE
*****
 39 42 0 0 0
SMALL
GASTEIGER

@<TRIPOS>ATOM
      1 C         143.9085  135.3952  155.5472 C.3     1  UNL1        0.0437
      2 C         142.5581  136.0279  155.7091 C.3     1  UNL1        0.1368
      3 C         142.2855  135.1275  154.5407 C.3     1  UNL1        0.0437
      4 C         141.1131  136.3479  155.4653 C.3     1  UNL1        0.0643
      5 C         140.4096  137.3486  156.3335 C.3     1  UNL1        0.1021
      6 C         141.1512  138.0292  157.4456 C.ar    1  UNL1        0.0488
      7 C         140.4477  139.0298  158.3139 C.ar    1  UNL1        0.0034
      8 C         141.1892  139.7105  159.4260 C.ar    1  UNL1        0.0177
      9 C         142.6343  139.3905  159.6699 C.ar    1  UNL1        0.0851
     10 N         143.3378  138.3898  158.8016 N.ar    1  UNL1       -0.2119
     11 C         142.5962  137.7092  157.6895 C.ar    1  UNL1        0.2219
     12 O         143.2996  136.7086  156.8212 O.3     1  UNL1       -0.4676
     13 C         143.3758  140.0711  160.7820 C.ar    1  UNL1        0.0284
     14 C         143.9590  141.4367  160.5690 C.ar    1  UNL1        0.0032
     15 C         144.7005  142.1173  161.6811 C.ar    1  UNL1        0.0115
     16 C         144.8590  141.4324  163.0062 C.ar    1  UNL1        0.0585
     17 CL        145.6005  142.1131  164.1183 Cl      1  UNL1       -0.0822
     18 C         144.2759  140.0670  163.2192 C.ar    1  UNL1        0.0228
     19 C         143.5343  139.3863  162.1071 C.ar    1  UNL1        0.0599
     20 CL        143.3004  138.6818  162.3978 Cl      1  UNL1       -0.0822
     21 C         140.4857  140.7111  160.2942 C.ar    1  UNL1        0.0015
     22 C         139.9033  140.2849  161.6092 C.ar    1  UNL1        0.0009
     23 C         139.1999  141.2855  162.4775 C.ar    1  UNL1        0.0114
     24 C         139.0788  142.7123  162.0307 C.ar    1  UNL1        0.0577
     25 CL        138.3753  143.7130  162.8990 Cl      1  UNL1       -0.0822
     26 C         139.6612  143.1385  160.7158 C.ar    1  UNL1        0.0114
     27 C         140.3647  142.1379  159.8475 C.ar    1  UNL1        0.0009
     28 N         138.9645  137.6685  156.0896 N.am    1  UNL1       -0.2998
     29 C         138.5898  138.7753  155.1491 C.2     1  UNL1        0.2552
     30 O         139.7802  139.4559  154.5410 O.2     1  UNL1       -0.2723
     31 H         138.2620  137.1521  156.5468 H       1  UNL1        0.1498
     32 C         137.1447  139.0953  154.9052 C.3     1  UNL1        0.2443
     33 C         135.6997  139.4152  154.6613 C.3     1  UNL1        0.0478
     34 O         136.8442  137.6323  154.7669 O.3     1  UNL1       -0.3719
     35 H         136.0691  137.5140  154.1958 H       1  UNL1        0.2111
     36 C         137.4453  140.5583  155.0435 C.3     1  UNL1        0.4274
     37 F         137.7459  142.0215  155.1817 F       1  UNL1       -0.1671
     38 F         137.6069  140.3851  156.5246 F       1  UNL1       -0.1671
     39 F         137.3215  140.9086  153.5901 F       1  UNL1       -0.1671
@<TRIPOS>BOND
     1     1     2    1
     2     2     3    1
     3     2     4    1
     4     4     5    1
     5     5    28    1
     6    28    29   am
     7    29    30    2
     8    29    32    1
     9    32    33    1
    10    32    34    1
    11    32    36    1
    12    36    37    1
    13    36    38    1
    14    36    39    1
    15     5     6    1
    16     6     7   ar
    17     7     8   ar
    18     8    21    1
    19    21    22   ar
    20    22    23   ar
    21    23    24   ar
    22    24    25    1
    23    24    26   ar
    24    26    27   ar
    25     8     9   ar
    26     9    13    1
    27    13    14   ar
    28    14    15   ar
    29    15    16   ar
    30    16    17    1
    31    16    18   ar
    32    18    19   ar
    33    19    20    1
    34     9    10   ar
    35    10    11   ar
    36    11    12    1
    37    12     2    1
    38    11     6   ar
    39    27    21   ar
    40    19    13   ar
    41    28    31    1
    42    34    35    1
@<TRIPOS>MOLECULE
*****
 39 42 0 0 0
SMALL
GASTEIGER

@<TRIPOS>ATOM
      1 C         139.4611  147.2265  155.2146 C.3     1  UNL1        0.0437
      2 C         140.6280  146.2904  155.3246 C.3     1  UNL1        0.1368
      3 C         140.7325  146.6678  153.8766 C.3     1  UNL1        0.0437
      4 C         141.8311  145.4853  154.9318 C.3     1  UNL1        0.0643
      5 C         142.5246  144.6280  155.9486 C.3     1  UNL1        0.1021
      6 C         142.0149  144.5756  157.3584 C.ar    1  UNL1        0.0488
      7 C         142.7084  143.7182  158.3753 C.ar    1  UNL1        0.0034
      8 C         142.1987  143.6659  159.7850 C.ar    1  UNL1        0.0177
      9 C         140.9955  144.4709  160.1780 C.ar    1  UNL1        0.0851
     10 N         140.3020  145.3283  159.1611 N.ar    1  UNL1       -0.2119
     11 C         140.8118  145.3806  157.7513 C.ar    1  UNL1        0.2219
     12 O         140.1183  146.2380  156.7344 O.3     1  UNL1       -0.4676
     13 C         140.4858  144.4186  161.5877 C.ar    1  UNL1        0.0284
     14 C         141.1836  145.1924  162.6668 C.ar    1  UNL1        0.0032
     15 C         140.6740  145.1401  164.0765 C.ar    1  UNL1        0.0115
     16 C         139.4665  144.3139  164.4073 C.ar    1  UNL1        0.0585
     17 CL        138.9568  144.2615  165.8170 Cl      1  UNL1       -0.0822
     18 C         138.7687  143.5401  163.3283 C.ar    1  UNL1        0.0228
     19 C         139.2783  143.5924  161.9185 C.ar    1  UNL1        0.0599
     20 CL        138.7910  143.1282  161.4913 Cl      1  UNL1       -0.0822
     21 C         142.8921  142.8085  160.8019 C.ar    1  UNL1        0.0015
     22 C         144.1029  143.3270  161.5197 C.ar    1  UNL1        0.0009
     23 C         144.7964  142.4697  162.5366 C.ar    1  UNL1        0.0114
     24 C         144.2790  141.0938  162.8357 C.ar    1  UNL1        0.0577
     25 CL        144.9725  140.2364  163.8525 Cl      1  UNL1       -0.0822
     26 C         143.0683  140.5753  162.1179 C.ar    1  UNL1        0.0114
     27 C         142.3748  141.4327  161.1010 C.ar    1  UNL1        0.0009
     28 N         143.7278  143.8229  155.5557 N.am    1  UNL1       -0.2998
     29 C         143.5691  142.3893  155.1440 C.2     1  UNL1        0.2552
     30 O         142.1440  141.9229  155.1819 O.2     1  UNL1       -0.2723
     31 H         144.6216  144.2355  155.5680 H       1  UNL1        0.1498
     32 C         144.7723  141.5843  154.7511 C.3     1  UNL1        0.2443
     33 C         145.9754  140.7793  154.3581 C.3     1  UNL1        0.0478
     34 O         144.1368  141.2809  153.4267 O.3     1  UNL1       -0.3719
     35 H         144.4777  140.4375  153.0901 H       1  UNL1        0.2111
     36 C         145.4079  141.8876  156.0754 C.3     1  UNL1        0.4274
     37 F         146.0434  142.1910  157.3999 F       1  UNL1       -0.1671
     38 F         146.4735  142.6834  155.3818 F       1  UNL1       -0.1671
     39 F         144.4276  141.1348  156.9254 F       1  UNL1       -0.1671
@<TRIPOS>BOND
     1     1     2    1
     2     2     3    1
     3     2     4    1
     4     4     5    1
     5     5    28    1
     6    28    29   am
     7    29    30    2
     8    29    32    1
     9    32    33    1
    10    32    34    1
    11    32    36    1
    12    36    37    1
    13    36    38    1
    14    36    39    1
    15     5     6    1
    16     6     7   ar
    17     7     8   ar
    18     8    21    1
    19    21    22   ar
    20    22    23   ar
    21    23    24   ar
    22    24    25    1
    23    24    26   ar
    24    26    27   ar
    25     8     9   ar
    26     9    13    1
    27    13    14   ar
    28    14    15   ar
    29    15    16   ar
    30    16    17    1
    31    16    18   ar
    32    18    19   ar
    33    19    20    1
    34     9    10   ar
    35    10    11   ar
    36    11    12    1
    37    12     2    1
    38    11     6   ar
    39    27    21   ar
    40    19    13   ar
    41    28    31    1
    42    34    35    1
