@<TRIPOS>MOLECULE
*****
 31 33 0 0 0
SMALL
GASTEIGER

@<TRIPOS>ATOM
      1 C         139.0200  138.1160  162.3294 C.3     1  UNL1        0.1070
      2 C         139.2128  140.7059  162.2555 C.2     1  UNL1        0.2470
      3 O         137.7654  140.8244  162.6310 O.2     1  UNL1       -0.2701
      4 N         139.8401  139.3518  162.1047 N.am    1  UNL1       -0.2994
      5 H         140.7901  139.2740  161.8583 H       1  UNL1        0.1498
      6 C         138.8906  142.7964  159.7704 C.3     1  UNL1        0.0502
      7 C         139.8848  142.9024  160.8886 C.ar    1  UNL1        0.0415
      8 C         140.0329  141.9415  162.0308 C.ar    1  UNL1        0.0661
      9 C         141.1452  142.4333  162.9089 C.ar    1  UNL1        0.0183
     10 C         141.6845  143.6980  162.3094 C.ar    1  UNL1        0.0363
     11 N         140.9055  143.9880  161.0607 N.ar    1  UNL1       -0.3319
     12 C         141.1112  145.1581  160.1450 C.3     1  UNL1        0.1298
     13 C         142.8058  144.5273  162.8616 C.3     1  UNL1        0.0336
     14 C         143.7963  143.6895  162.1084 C.3     1  UNL1        0.0059
     15 C         141.8154  145.3651  163.6148 C.3     1  UNL1        0.0059
     16 C         143.9272  145.3565  163.4138 C.3     1  UNL1        0.0059
     17 C         139.0662  137.4160  163.6553 C.3     1  UNL1        0.0937
     18 N         139.3820  138.1895  164.9011 N.3     1  UNL1       -0.2683
     19 C         138.2883  138.5317  165.8689 C.3     1  UNL1        0.0939
     20 C         138.6042  139.3051  167.1147 C.3     1  UNL1        0.1081
     21 N         140.0138  139.7362  167.3927 N.pl3   1  UNL1       -0.3040
     22 C         141.1075  139.3939  166.4249 C.3     1  UNL1        0.1081
     23 C         140.7916  138.6205  165.1791 C.3     1  UNL1        0.0939
     24 C         140.3297  140.5096  168.6386 C.ar    1  UNL1        0.0594
     25 C         140.6706  139.7834  169.9060 C.ar    1  UNL1        0.0154
     26 C         140.9864  140.5568  171.1519 C.ar    1  UNL1        0.0022
     27 C         140.9614  142.0564  171.1303 C.ar    1  UNL1        0.0123
     28 C         140.6204  142.7826  169.8628 C.ar    1  UNL1        0.0694
     29 CL        140.5954  144.2823  169.8412 Cl      1  UNL1       -0.0813
     30 C         140.3046  142.0092  168.6170 C.ar    1  UNL1        0.0815
     31 CL        139.9637  142.7355  167.3495 Cl      1  UNL1       -0.0801
@<TRIPOS>BOND
     1     6     7    1
     2     7     8   ar
     3     8     2    1
     4     2     3    2
     5     2     4   am
     6     4     1    1
     7     1    17    1
     8    17    18    1
     9    18    19    1
    10    19    20    1
    11    20    21    1
    12    21    24    1
    13    24    25   ar
    14    25    26   ar
    15    26    27   ar
    16    27    28   ar
    17    28    29    1
    18    28    30   ar
    19    30    31    1
    20    21    22    1
    21    22    23    1
    22     8     9   ar
    23     9    10   ar
    24    10    13    1
    25    13    14    1
    26    13    15    1
    27    13    16    1
    28    10    11   ar
    29    11    12    1
    30    11     7   ar
    31    23    18    1
    32    30    24   ar
    33     4     5    1
@<TRIPOS>MOLECULE
*****
 31 33 0 0 0
SMALL
GASTEIGER

@<TRIPOS>ATOM
      1 C         144.6296  140.7486  157.2782 C.3     1  UNL1        0.1070
      2 C         143.7287  142.3463  159.1183 C.2     1  UNL1        0.2470
      3 O         143.5423  143.4238  158.0915 O.2     1  UNL1       -0.2701
      4 N         144.2723  141.0087  158.7117 N.am    1  UNL1       -0.2994
      5 H         144.3947  140.3016  159.3856 H       1  UNL1        0.1498
      6 C         140.7325  142.2078  160.4040 C.3     1  UNL1        0.0502
      7 C         141.9942  142.5427  161.1427 C.ar    1  UNL1        0.0415
      8 C         143.3715  142.6064  160.5517 C.ar    1  UNL1        0.0661
      9 C         144.3287  142.9758  161.6459 C.ar    1  UNL1        0.0183
     10 C         143.5432  143.1404  162.9130 C.ar    1  UNL1        0.0363
     11 N         142.1003  142.8728  162.6021 N.ar    1  UNL1       -0.3319
     12 C         140.9633  142.9258  163.5789 C.3     1  UNL1        0.1298
     13 C         144.1022  143.5081  164.2555 C.3     1  UNL1        0.0336
     14 C         143.7539  144.9458  164.0068 C.3     1  UNL1        0.0059
     15 C         144.4506  142.0705  164.5043 C.3     1  UNL1        0.0059
     16 C         144.6613  143.8759  165.5980 C.3     1  UNL1        0.0059
     17 C         143.6708  140.0159  156.3874 C.3     1  UNL1        0.0937
     18 N         143.5916  138.5189  156.4409 N.3     1  UNL1       -0.2683
     19 C         142.8010  137.8480  157.5248 C.3     1  UNL1        0.0939
     20 C         142.7219  136.3510  157.5783 C.3     1  UNL1        0.1081
     21 N         143.4334  135.5251  156.5480 N.pl3   1  UNL1       -0.3040
     22 C         144.2240  136.1960  155.4641 C.3     1  UNL1        0.1081
     23 C         144.3031  137.6929  155.4106 C.3     1  UNL1        0.0939
     24 C         143.3542  134.0280  156.6016 C.ar    1  UNL1        0.0594
     25 C         144.3484  133.2531  157.4145 C.ar    1  UNL1        0.0154
     26 C         144.2693  131.7561  157.4681 C.ar    1  UNL1        0.0022
     27 C         143.1959  131.0341  156.7087 C.ar    1  UNL1        0.0123
     28 C         142.2017  131.8092  155.8956 C.ar    1  UNL1        0.0694
     29 CL        141.1284  131.0873  155.1362 Cl      1  UNL1       -0.0813
     30 C         142.2809  133.3061  155.8421 C.ar    1  UNL1        0.0815
     31 CL        141.2867  134.0812  155.0291 Cl      1  UNL1       -0.0801
@<TRIPOS>BOND
     1     6     7    1
     2     7     8   ar
     3     8     2    1
     4     2     3    2
     5     2     4   am
     6     4     1    1
     7     1    17    1
     8    17    18    1
     9    18    19    1
    10    19    20    1
    11    20    21    1
    12    21    24    1
    13    24    25   ar
    14    25    26   ar
    15    26    27   ar
    16    27    28   ar
    17    28    29    1
    18    28    30   ar
    19    30    31    1
    20    21    22    1
    21    22    23    1
    22     8     9   ar
    23     9    10   ar
    24    10    13    1
    25    13    14    1
    26    13    15    1
    27    13    16    1
    28    10    11   ar
    29    11    12    1
    30    11     7   ar
    31    23    18    1
    32    30    24   ar
    33     4     5    1
@<TRIPOS>MOLECULE
*****
 31 33 0 0 0
SMALL
GASTEIGER

@<TRIPOS>ATOM
      1 C         142.8853  137.0222  157.4518 C.3     1  UNL1        0.1070
      2 C         142.9140  134.4772  156.9300 C.2     1  UNL1        0.2470
      3 O         143.5503  134.2113  158.2621 O.2     1  UNL1       -0.2701
      4 N         142.5815  135.8826  156.5248 N.am    1  UNL1       -0.2994
      5 H         142.1639  136.0571  155.6505 H       1  UNL1        0.1498
      6 C         144.9019  131.9824  156.2414 C.3     1  UNL1        0.0502
      7 C         143.5240  132.1910  155.6865 C.ar    1  UNL1        0.0415
      8 C         142.6102  133.3377  156.0031 C.ar    1  UNL1        0.0661
      9 C         141.3394  133.1448  155.2299 C.ar    1  UNL1        0.0183
     10 C         141.4677  131.8789  154.4356 C.ar    1  UNL1        0.0363
     11 N         142.8179  131.2894  154.7178 N.ar    1  UNL1       -0.3319
     12 C         143.3657  130.0210  154.1338 C.3     1  UNL1        0.1298
     13 C         140.4283  131.3035  153.5198 C.3     1  UNL1        0.0336
     14 C         140.9881  132.1041  152.3815 C.3     1  UNL1        0.0059
     15 C         139.8685  130.5029  154.6581 C.3     1  UNL1        0.0059
     16 C         139.3889  130.7281  152.6040 C.3     1  UNL1        0.0059
     17 C         141.8415  138.0637  157.7271 C.3     1  UNL1        0.0937
     18 N         141.3320  138.2640  159.1237 N.3     1  UNL1       -0.2683
     19 C         142.2402  138.0299  160.2942 C.3     1  UNL1        0.0939
     20 C         141.7306  138.2302  161.6907 C.3     1  UNL1        0.1081
     21 N         140.3128  138.6646  161.9166 N.pl3   1  UNL1       -0.3040
     22 C         139.4045  138.8986  160.7461 C.3     1  UNL1        0.1081
     23 C         139.9141  138.6983  159.3496 C.3     1  UNL1        0.0939
     24 C         139.8032  138.8649  163.3132 C.ar    1  UNL1        0.0594
     25 C         139.1421  137.7315  164.0401 C.ar    1  UNL1        0.0154
     26 C         138.6326  137.9318  165.4366 C.ar    1  UNL1        0.0022
     27 C         138.7841  139.2655  166.1062 C.ar    1  UNL1        0.0123
     28 C         139.4453  140.3989  165.3792 C.ar    1  UNL1        0.0694
     29 CL        139.5968  141.7326  166.0488 Cl      1  UNL1       -0.0813
     30 C         139.9548  140.1986  163.9827 C.ar    1  UNL1        0.0815
     31 CL        140.6159  141.3319  163.2557 Cl      1  UNL1       -0.0801
@<TRIPOS>BOND
     1     6     7    1
     2     7     8   ar
     3     8     2    1
     4     2     3    2
     5     2     4   am
     6     4     1    1
     7     1    17    1
     8    17    18    1
     9    18    19    1
    10    19    20    1
    11    20    21    1
    12    21    24    1
    13    24    25   ar
    14    25    26   ar
    15    26    27   ar
    16    27    28   ar
    17    28    29    1
    18    28    30   ar
    19    30    31    1
    20    21    22    1
    21    22    23    1
    22     8     9   ar
    23     9    10   ar
    24    10    13    1
    25    13    14    1
    26    13    15    1
    27    13    16    1
    28    10    11   ar
    29    11    12    1
    30    11     7   ar
    31    23    18    1
    32    30    24   ar
    33     4     5    1
@<TRIPOS>MOLECULE
*****
 31 33 0 0 0
SMALL
GASTEIGER

@<TRIPOS>ATOM
      1 C         143.3733  139.2658  160.5742 C.3     1  UNL1        0.1070
      2 C         142.7133  141.6272  161.4335 C.2     1  UNL1        0.2470
      3 O         144.1606  141.9487  161.6615 O.2     1  UNL1       -0.2701
      4 N         142.3197  140.2858  160.8899 N.am    1  UNL1       -0.2994
      5 H         141.3698  140.0748  160.7403 H       1  UNL1        0.1498
      6 C         142.0839  144.3296  159.7158 C.3     1  UNL1        0.0502
      7 C         141.3704  143.8893  160.9596 C.ar    1  UNL1        0.0415
      8 C         141.6597  142.6471  161.7491 C.ar    1  UNL1        0.0661
      9 C         140.7105  142.6040  162.9097 C.ar    1  UNL1        0.0183
     10 C         139.8345  143.8194  162.8375 C.ar    1  UNL1        0.0363
     11 N         140.2423  144.6138  161.6322 N.ar    1  UNL1       -0.3319
     12 C         139.6296  145.9058  161.1791 C.3     1  UNL1        0.1298
     13 C         138.7423  144.1776  163.8013 C.3     1  UNL1        0.0336
     14 C         139.7598  144.7570  164.7389 C.3     1  UNL1        0.0059
     15 C         137.7248  143.5983  162.8637 C.3     1  UNL1        0.0059
     16 C         137.6502  144.5359  164.7651 C.3     1  UNL1        0.0059
     17 C         143.9329  138.4029  161.6661 C.3     1  UNL1        0.0937
     18 N         143.5211  138.6339  163.0900 N.3     1  UNL1       -0.2683
     19 C         144.3662  139.4903  163.9856 C.3     1  UNL1        0.0939
     20 C         143.9544  139.7212  165.4094 C.3     1  UNL1        0.1081
     21 N         142.6976  139.0956  165.9375 N.pl3   1  UNL1       -0.3040
     22 C         141.8525  138.2391  165.0418 C.3     1  UNL1        0.1081
     23 C         142.2642  138.0083  163.6181 C.3     1  UNL1        0.0939
     24 C         142.2858  139.3265  167.3613 C.ar    1  UNL1        0.0594
     25 C         143.0115  138.6303  168.4742 C.ar    1  UNL1        0.0154
     26 C         142.5998  138.8612  169.8980 C.ar    1  UNL1        0.0022
     27 C         141.4623  139.7883  170.2089 C.ar    1  UNL1        0.0123
     28 C         140.7365  140.4845  169.0958 C.ar    1  UNL1        0.0694
     29 CL        139.5990  141.4116  169.4067 Cl      1  UNL1       -0.0813
     30 C         141.1483  140.2536  167.6721 C.ar    1  UNL1        0.0815
     31 CL        140.4226  140.9498  166.5591 Cl      1  UNL1       -0.0801
@<TRIPOS>BOND
     1     6     7    1
     2     7     8   ar
     3     8     2    1
     4     2     3    2
     5     2     4   am
     6     4     1    1
     7     1    17    1
     8    17    18    1
     9    18    19    1
    10    19    20    1
    11    20    21    1
    12    21    24    1
    13    24    25   ar
    14    25    26   ar
    15    26    27   ar
    16    27    28   ar
    17    28    29    1
    18    28    30   ar
    19    30    31    1
    20    21    22    1
    21    22    23    1
    22     8     9   ar
    23     9    10   ar
    24    10    13    1
    25    13    14    1
    26    13    15    1
    27    13    16    1
    28    10    11   ar
    29    11    12    1
    30    11     7   ar
    31    23    18    1
    32    30    24   ar
    33     4     5    1
@<TRIPOS>MOLECULE
*****
 31 33 0 0 0
SMALL
GASTEIGER

@<TRIPOS>ATOM
      1 C         140.8997  145.3918  163.1515 C.3     1  UNL1        0.1070
      2 C         139.8348  143.9329  165.0191 C.2     1  UNL1        0.2470
      3 O         138.8573  145.0305  165.3191 O.2     1  UNL1       -0.2701
      4 N         140.8559  144.1136  163.9353 N.am    1  UNL1       -0.2994
      5 H         141.4975  143.3932  163.7384 H       1  UNL1        0.1498
      6 C         138.1484  141.2538  164.2268 C.3     1  UNL1        0.0502
      7 C         139.0159  141.4233  165.4386 C.ar    1  UNL1        0.0415
      8 C         139.7911  142.6548  165.8028 C.ar    1  UNL1        0.0661
      9 C         140.5149  142.3836  167.0883 C.ar    1  UNL1        0.0183
     10 C         140.1871  140.9846  167.5187 C.ar    1  UNL1        0.0363
     11 N         139.2606  140.3910  166.4991 N.ar    1  UNL1       -0.3319
     12 C         138.6808  139.0081  166.5339 C.3     1  UNL1        0.1298
     13 C         140.6963  140.2994  168.7521 C.3     1  UNL1        0.0336
     14 C         139.4726  140.7377  169.5008 C.3     1  UNL1        0.0059
     15 C         141.9199  139.8610  168.0033 C.3     1  UNL1        0.0059
     16 C         141.2054  139.6141  169.9854 C.3     1  UNL1        0.0059
     17 C         139.8623  145.6645  162.1030 C.3     1  UNL1        0.0937
     18 N         139.6017  144.6543  161.0251 N.3     1  UNL1       -0.2683
     19 C         140.2047  144.8375  159.6639 C.3     1  UNL1        0.0939
     20 C         139.9441  143.8274  158.5861 C.3     1  UNL1        0.1081
     21 N         139.0806  142.6340  158.8695 N.pl3   1  UNL1       -0.3040
     22 C         138.4777  142.4508  160.2307 C.3     1  UNL1        0.1081
     23 C         138.7383  143.4610  161.3085 C.3     1  UNL1        0.0939
     24 C         138.8200  141.6239  157.7916 C.ar    1  UNL1        0.0594
     25 C         137.7912  141.9018  156.7361 C.ar    1  UNL1        0.0154
     26 C         137.5306  140.8916  155.6582 C.ar    1  UNL1        0.0022
     27 C         138.2990  139.6036  155.6359 C.ar    1  UNL1        0.0123
     28 C         139.3279  139.3257  156.6915 C.ar    1  UNL1        0.0694
     29 CL        140.0962  138.0376  156.6693 Cl      1  UNL1       -0.0813
     30 C         139.5884  140.3358  157.7693 C.ar    1  UNL1        0.0815
     31 CL        140.6173  140.0579  158.8249 Cl      1  UNL1       -0.0801
@<TRIPOS>BOND
     1     6     7    1
     2     7     8   ar
     3     8     2    1
     4     2     3    2
     5     2     4   am
     6     4     1    1
     7     1    17    1
     8    17    18    1
     9    18    19    1
    10    19    20    1
    11    20    21    1
    12    21    24    1
    13    24    25   ar
    14    25    26   ar
    15    26    27   ar
    16    27    28   ar
    17    28    29    1
    18    28    30   ar
    19    30    31    1
    20    21    22    1
    21    22    23    1
    22     8     9   ar
    23     9    10   ar
    24    10    13    1
    25    13    14    1
    26    13    15    1
    27    13    16    1
    28    10    11   ar
    29    11    12    1
    30    11     7   ar
    31    23    18    1
    32    30    24   ar
    33     4     5    1
@<TRIPOS>MOLECULE
*****
 31 33 0 0 0
SMALL
GASTEIGER

@<TRIPOS>ATOM
      1 C         138.7045  138.1247  162.6554 C.3     1  UNL1        0.1070
      2 C         140.2109  139.4357  164.3175 C.2     1  UNL1        0.2470
      3 O         141.0024  139.9842  163.1674 O.2     1  UNL1       -0.2701
      4 N         139.0620  138.5059  164.0615 N.am    1  UNL1       -0.2994
      5 H         138.5425  138.1459  164.8163 H       1  UNL1        0.1498
      6 C         142.8630  138.4652  165.9528 C.3     1  UNL1        0.0502
      7 C         141.7873  139.3708  166.4752 C.ar    1  UNL1        0.0415
      8 C         140.5683  139.8168  165.7235 C.ar    1  UNL1        0.0661
      9 C         139.7694  140.7110  166.6247 C.ar    1  UNL1        0.0183
     10 C         140.4947  140.8176  167.9334 C.ar    1  UNL1        0.0363
     11 N         141.7419  139.9892  167.8410 N.ar    1  UNL1       -0.3319
     12 C         142.7640  139.8107  168.9241 C.3     1  UNL1        0.1298
     13 C         140.0507  141.6128  169.1252 C.3     1  UNL1        0.0336
     14 C         139.2859  140.4262  169.6321 C.3     1  UNL1        0.0059
     15 C         140.8156  142.7995  168.6183 C.3     1  UNL1        0.0059
     16 C         139.6068  142.4081  170.3171 C.3     1  UNL1        0.0059
     17 C         137.7728  138.9884  161.8580 C.3     1  UNL1        0.0937
     18 N         138.3137  140.1371  161.0592 N.3     1  UNL1       -0.2683
     19 C         139.1596  139.8761  159.8483 C.3     1  UNL1        0.0939
     20 C         139.7004  141.0248  159.0496 C.3     1  UNL1        0.1081
     21 N         139.3954  142.4344  159.4618 N.pl3   1  UNL1       -0.3040
     22 C         138.5495  142.6954  160.6727 C.3     1  UNL1        0.1081
     23 C         138.0087  141.5467  161.4714 C.3     1  UNL1        0.0939
     24 C         139.9363  143.5831  158.6630 C.ar    1  UNL1        0.0594
     25 C         141.0732  144.4008  159.2003 C.ar    1  UNL1        0.0154
     26 C         141.6141  145.5495  158.4015 C.ar    1  UNL1        0.0022
     27 C         141.0181  145.8804  157.0654 C.ar    1  UNL1        0.0123
     28 C         139.8811  145.0626  156.5280 C.ar    1  UNL1        0.0694
     29 CL        139.2851  145.3935  155.1919 Cl      1  UNL1       -0.0813
     30 C         139.3403  143.9140  157.3268 C.ar    1  UNL1        0.0815
     31 CL        138.2034  143.0961  156.7895 Cl      1  UNL1       -0.0801
@<TRIPOS>BOND
     1     6     7    1
     2     7     8   ar
     3     8     2    1
     4     2     3    2
     5     2     4   am
     6     4     1    1
     7     1    17    1
     8    17    18    1
     9    18    19    1
    10    19    20    1
    11    20    21    1
    12    21    24    1
    13    24    25   ar
    14    25    26   ar
    15    26    27   ar
    16    27    28   ar
    17    28    29    1
    18    28    30   ar
    19    30    31    1
    20    21    22    1
    21    22    23    1
    22     8     9   ar
    23     9    10   ar
    24    10    13    1
    25    13    14    1
    26    13    15    1
    27    13    16    1
    28    10    11   ar
    29    11    12    1
    30    11     7   ar
    31    23    18    1
    32    30    24   ar
    33     4     5    1
@<TRIPOS>MOLECULE
*****
 31 33 0 0 0
SMALL
GASTEIGER

@<TRIPOS>ATOM
      1 C         144.5039  142.9929  161.7304 C.3     1  UNL1        0.1070
      2 C         144.4740  141.8443  164.0606 C.2     1  UNL1        0.2470
      3 O         145.8152  141.2350  163.7775 O.2     1  UNL1       -0.2701
      4 N         143.8184  142.7232  163.0371 N.am    1  UNL1       -0.2994
      5 H         142.9382  143.1231  163.2229 H       1  UNL1        0.1498
      6 C         143.5265  138.9223  165.1625 C.3     1  UNL1        0.0502
      7 C         143.3530  140.2316  165.8737 C.ar    1  UNL1        0.0415
      8 C         143.7885  141.5746  165.3672 C.ar    1  UNL1        0.0661
      9 C         143.4181  142.6007  166.3968 C.ar    1  UNL1        0.0183
     10 C         142.7537  141.8918  167.5396 C.ar    1  UNL1        0.0363
     11 N         142.7134  140.4276  167.2163 N.ar    1  UNL1       -0.3319
     12 C         142.1351  139.3488  168.0834 C.3     1  UNL1        0.1298
     13 C         142.2227  142.5343  168.7867 C.3     1  UNL1        0.0336
     14 C         143.5586  142.3585  169.4460 C.3     1  UNL1        0.0059
     15 C         140.8869  142.7102  168.1274 C.3     1  UNL1        0.0059
     16 C         141.6918  143.1768  170.0338 C.3     1  UNL1        0.0059
     17 C         144.0451  142.2947  160.4846 C.3     1  UNL1        0.0937
     18 N         143.0484  142.9550  159.5786 N.3     1  UNL1       -0.2683
     19 C         141.6782  143.2903  160.0886 C.3     1  UNL1        0.0939
     20 C         140.6816  143.9506  159.1826 C.3     1  UNL1        0.1081
     21 N         141.0552  144.2755  157.7667 N.pl3   1  UNL1       -0.3040
     22 C         142.4254  143.9402  157.2567 C.3     1  UNL1        0.1081
     23 C         143.4220  143.2800  158.1627 C.3     1  UNL1        0.0939
     24 C         140.0585  144.9358  156.8607 C.ar    1  UNL1        0.0594
     25 C         140.1050  146.4201  156.6495 C.ar    1  UNL1        0.0154
     26 C         139.1084  147.0804  155.7435 C.ar    1  UNL1        0.0022
     27 C         138.0652  146.2563  155.0488 C.ar    1  UNL1        0.0123
     28 C         138.0187  144.7719  155.2600 C.ar    1  UNL1        0.0694
     29 CL        136.9756  143.9478  154.5653 Cl      1  UNL1       -0.0813
     30 C         139.0154  144.1117  156.1660 C.ar    1  UNL1        0.0815
     31 CL        138.9689  142.6273  156.3772 Cl      1  UNL1       -0.0801
@<TRIPOS>BOND
     1     6     7    1
     2     7     8   ar
     3     8     2    1
     4     2     3    2
     5     2     4   am
     6     4     1    1
     7     1    17    1
     8    17    18    1
     9    18    19    1
    10    19    20    1
    11    20    21    1
    12    21    24    1
    13    24    25   ar
    14    25    26   ar
    15    26    27   ar
    16    27    28   ar
    17    28    29    1
    18    28    30   ar
    19    30    31    1
    20    21    22    1
    21    22    23    1
    22     8     9   ar
    23     9    10   ar
    24    10    13    1
    25    13    14    1
    26    13    15    1
    27    13    16    1
    28    10    11   ar
    29    11    12    1
    30    11     7   ar
    31    23    18    1
    32    30    24   ar
    33     4     5    1
@<TRIPOS>MOLECULE
*****
 31 33 0 0 0
SMALL
GASTEIGER

@<TRIPOS>ATOM
      1 C         144.5554  140.6071  156.8230 C.3     1  UNL1        0.1070
      2 C         143.5816  141.0396  159.1925 C.2     1  UNL1        0.2470
      3 O         142.3681  141.6723  158.5784 O.2     1  UNL1       -0.2701
      4 N         144.6752  140.5070  158.3149 N.am    1  UNL1       -0.2994
      5 H         145.4717  140.0918  158.7180 H       1  UNL1        0.1498
      6 C         143.7160  138.2773  160.9250 C.3     1  UNL1        0.0502
      7 C         143.7632  139.6698  161.4807 C.ar    1  UNL1        0.0415
      8 C         143.7014  140.9395  160.6844 C.ar    1  UNL1        0.0661
      9 C         143.7805  142.0914  161.6418 C.ar    1  UNL1        0.0183
     10 C         143.8912  141.5338  163.0298 C.ar    1  UNL1        0.0363
     11 N         143.8805  140.0371  162.9303 N.ar    1  UNL1       -0.3319
     12 C         143.9711  139.0764  164.0787 C.3     1  UNL1        0.1298
     13 C         143.9944  142.3325  164.2953 C.3     1  UNL1        0.0336
     14 C         145.4908  142.2940  164.1975 C.3     1  UNL1        0.0059
     15 C         142.4981  142.3710  164.3931 C.3     1  UNL1        0.0059
     16 C         144.0977  143.1313  165.5608 C.3     1  UNL1        0.0059
     17 C         143.5319  139.7863  156.0960 C.3     1  UNL1        0.0937
     18 N         143.5216  138.2940  156.2480 N.3     1  UNL1       -0.2683
     19 C         144.2809  137.4362  155.2798 C.3     1  UNL1        0.0939
     20 C         144.2705  135.9440  155.4318 C.3     1  UNL1        0.1081
     21 N         143.5008  135.3096  156.5521 N.pl3   1  UNL1       -0.3040
     22 C         142.7415  136.1674  157.5204 C.3     1  UNL1        0.1081
     23 C         142.7519  137.6596  157.3684 C.3     1  UNL1        0.0939
     24 C         143.4905  133.8173  156.7042 C.ar    1  UNL1        0.0594
     25 C         144.5006  133.1463  157.5870 C.ar    1  UNL1        0.0154
     26 C         144.4903  131.6540  157.7390 C.ar    1  UNL1        0.0022
     27 C         143.4697  130.8328  157.0082 C.ar    1  UNL1        0.0123
     28 C         142.4595  131.5038  156.1253 C.ar    1  UNL1        0.0694
     29 CL        141.4390  130.6826  155.3945 Cl      1  UNL1       -0.0813
     30 C         142.4699  132.9960  155.9734 C.ar    1  UNL1        0.0815
     31 CL        141.4598  133.6671  155.0905 Cl      1  UNL1       -0.0801
@<TRIPOS>BOND
     1     6     7    1
     2     7     8   ar
     3     8     2    1
     4     2     3    2
     5     2     4   am
     6     4     1    1
     7     1    17    1
     8    17    18    1
     9    18    19    1
    10    19    20    1
    11    20    21    1
    12    21    24    1
    13    24    25   ar
    14    25    26   ar
    15    26    27   ar
    16    27    28   ar
    17    28    29    1
    18    28    30   ar
    19    30    31    1
    20    21    22    1
    21    22    23    1
    22     8     9   ar
    23     9    10   ar
    24    10    13    1
    25    13    14    1
    26    13    15    1
    27    13    16    1
    28    10    11   ar
    29    11    12    1
    30    11     7   ar
    31    23    18    1
    32    30    24   ar
    33     4     5    1
@<TRIPOS>MOLECULE
*****
 31 33 0 0 0
SMALL
GASTEIGER

@<TRIPOS>ATOM
      1 C         144.4227  140.4924  158.0168 C.3     1  UNL1        0.1070
      2 C         143.2854  140.7861  160.3342 C.2     1  UNL1        0.2470
      3 O         142.9590  142.2099  159.9936 O.2     1  UNL1       -0.2701
      4 N         144.0172  139.9273  159.3458 N.am    1  UNL1       -0.2994
      5 H         144.2315  138.9928  159.5694 H       1  UNL1        0.1498
      6 C         145.0939  140.7855  163.0506 C.3     1  UNL1        0.0502
      7 C         143.7113  140.2207  162.9118 C.ar    1  UNL1        0.0415
      8 C         142.8800  140.2209  161.6632 C.ar    1  UNL1        0.0661
      9 C         141.5722  139.5568  161.9769 C.ar    1  UNL1        0.0183
     10 C         141.5951  139.1461  163.4194 C.ar    1  UNL1        0.0363
     11 N         142.9172  139.5564  163.9972 N.ar    1  UNL1       -0.3319
     12 C         143.3663  139.3404  165.4120 C.3     1  UNL1        0.1298
     13 C         140.4900  138.4478  164.1550 C.3     1  UNL1        0.0336
     14 C         141.0814  137.1203  163.7832 C.3     1  UNL1        0.0059
     15 C         139.8986  139.7752  164.5268 C.3     1  UNL1        0.0059
     16 C         139.3849  137.7494  164.8906 C.3     1  UNL1        0.0059
     17 C         143.7252  140.0440  156.7668 C.3     1  UNL1        0.0937
     18 N         143.4184  138.5904  156.5594 N.3     1  UNL1       -0.2683
     19 C         144.3138  137.7505  155.6975 C.3     1  UNL1        0.0939
     20 C         144.0070  136.2969  155.4902 C.3     1  UNL1        0.1081
     21 N         142.8049  135.6833  156.1447 N.pl3   1  UNL1       -0.3040
     22 C         141.9095  136.5232  157.0065 C.3     1  UNL1        0.1081
     23 C         142.2163  137.9767  157.2139 C.3     1  UNL1        0.0939
     24 C         142.4982  134.2297  155.9373 C.ar    1  UNL1        0.0594
     25 C         141.5426  133.8111  154.8595 C.ar    1  UNL1        0.0154
     26 C         141.2358  132.3575  154.6520 C.ar    1  UNL1        0.0022
     27 C         141.8847  131.3225  155.5225 C.ar    1  UNL1        0.0123
     28 C         142.8403  131.7411  156.6003 C.ar    1  UNL1        0.0694
     29 CL        143.4892  130.7060  157.4708 Cl      1  UNL1       -0.0813
     30 C         143.1470  133.1946  156.8077 C.ar    1  UNL1        0.0815
     31 CL        144.1026  133.6132  157.8855 Cl      1  UNL1       -0.0801
@<TRIPOS>BOND
     1     6     7    1
     2     7     8   ar
     3     8     2    1
     4     2     3    2
     5     2     4   am
     6     4     1    1
     7     1    17    1
     8    17    18    1
     9    18    19    1
    10    19    20    1
    11    20    21    1
    12    21    24    1
    13    24    25   ar
    14    25    26   ar
    15    26    27   ar
    16    27    28   ar
    17    28    29    1
    18    28    30   ar
    19    30    31    1
    20    21    22    1
    21    22    23    1
    22     8     9   ar
    23     9    10   ar
    24    10    13    1
    25    13    14    1
    26    13    15    1
    27    13    16    1
    28    10    11   ar
    29    11    12    1
    30    11     7   ar
    31    23    18    1
    32    30    24   ar
    33     4     5    1
