@<TRIPOS>MOLECULE
*****
 24 27 0 0 0
SMALL
GASTEIGER

@<TRIPOS>ATOM
      1 C         141.1957  142.2410  166.4289 C.2     1  UNL1        0.0020
      2 C         140.7828  142.5549  167.8364 C.2     1  UNL1        0.0130
      3 C         141.1598  141.6271  168.9531 C.3     1  UNL1        0.1542
      4 C         140.3700  142.8687  169.2439 C.3     1  UNL1        0.0614
      5 C         139.9572  143.1825  170.6514 C.3     1  UNL1        0.0725
      6 N         140.3341  142.2547  171.7681 N.3     1  UNL1       -0.2972
      7 C         141.1240  141.0131  171.4773 C.3     1  UNL1        0.0725
      8 C         141.5368  140.6993  170.0699 C.3     1  UNL1        0.0614
      9 O         141.9497  140.3855  168.6623 O.3     1  UNL1       -0.4785
     10 C         142.3625  140.0717  167.2548 C.ar    1  UNL1        0.1386
     11 C         143.1524  138.8300  166.9640 C.ar    1  UNL1        0.0369
     12 C         143.5652  138.5162  165.5565 C.ar    1  UNL1        0.0031
     13 C         143.1882  139.4440  164.4398 C.ar    1  UNL1        0.0002
     14 C         142.3984  140.6856  164.7306 C.ar    1  UNL1        0.0030
     15 C         141.9855  140.9995  166.1381 C.ar    1  UNL1        0.0338
     16 H         139.4641  141.9541  172.2075 H       1  UNL1        0.1233
     17 C         140.0647  145.0244  163.0787 C.ar    1  UNL1        0.0684
     18 C         141.5015  144.8872  163.4870 C.ar    1  UNL1        0.0103
     19 C         141.8785  143.9594  164.6037 C.ar    1  UNL1        0.0007
     20 C         140.8187  143.1688  165.3121 C.ar    1  UNL1       -0.0001
     21 C         139.3818  143.3061  164.9038 C.ar    1  UNL1        0.0007
     22 C         139.0048  144.2338  163.7871 C.ar    1  UNL1        0.0103
     23 N         139.3107  146.8800  160.8452 N.1     1  UNL1       -0.1908
     24 C         139.6877  145.9522  161.9619 C.1     1  UNL1        0.1004
@<TRIPOS>BOND
     1    23    24    3
     2    24    17    1
     3    17    18   ar
     4    18    19   ar
     5    19    20   ar
     6    20     1    1
     7     1     2    2
     8     2     3    1
     9     3     4    1
    10     4     5    1
    11     5     6    1
    12     6     7    1
    13     7     8    1
    14     3     9    1
    15     9    10    1
    16    10    11   ar
    17    11    12   ar
    18    12    13   ar
    19    13    14   ar
    20    14    15   ar
    21    20    21   ar
    22    21    22   ar
    23    22    17   ar
    24    15     1    1
    25     8     3    1
    26    15    10   ar
    27     6    16    1
@<TRIPOS>MOLECULE
*****
 24 27 0 0 0
SMALL
GASTEIGER

@<TRIPOS>ATOM
      1 C         141.7048  140.4611  164.9411 C.2     1  UNL1        0.0020
      2 C         140.6884  139.6518  164.1914 C.2     1  UNL1        0.0130
      3 C         140.9171  139.3109  162.7486 C.3     1  UNL1        0.1542
      4 C         139.6721  138.8425  163.4417 C.3     1  UNL1        0.0614
      5 C         138.6558  138.0332  162.6920 C.3     1  UNL1        0.0725
      6 N         138.8845  137.6923  161.2493 N.3     1  UNL1       -0.2972
      7 C         140.1296  138.1607  160.5562 C.3     1  UNL1        0.0725
      8 C         141.1459  138.9700  161.3059 C.3     1  UNL1        0.0614
      9 O         142.1623  139.7794  162.0556 O.3     1  UNL1       -0.4785
     10 C         143.1786  140.5887  162.8053 C.ar    1  UNL1        0.1386
     11 C         144.4237  141.0572  162.1122 C.ar    1  UNL1        0.0369
     12 C         145.4400  141.8665  162.8619 C.ar    1  UNL1        0.0031
     13 C         145.2113  142.2074  164.3047 C.ar    1  UNL1        0.0002
     14 C         143.9662  141.7390  164.9977 C.ar    1  UNL1        0.0030
     15 C         142.9498  140.9296  164.2480 C.ar    1  UNL1        0.0338
     16 H         138.0957  138.0745  160.7277 H       1  UNL1        0.1233
     17 C         141.0186  141.4838  169.2693 C.ar    1  UNL1        0.0684
     18 C         140.5779  142.4336  168.1952 C.ar    1  UNL1        0.0103
     19 C         140.8067  142.0927  166.7525 C.ar    1  UNL1        0.0007
     20 C         141.4761  140.8020  166.3838 C.ar    1  UNL1       -0.0001
     21 C         141.9167  139.8521  167.4579 C.ar    1  UNL1        0.0007
     22 C         141.6880  140.1930  168.9006 C.ar    1  UNL1        0.0103
     23 N         140.5611  142.1655  172.1547 N.1     1  UNL1       -0.1908
     24 C         140.7898  141.8246  170.7120 C.1     1  UNL1        0.1004
@<TRIPOS>BOND
     1    23    24    3
     2    24    17    1
     3    17    18   ar
     4    18    19   ar
     5    19    20   ar
     6    20     1    1
     7     1     2    2
     8     2     3    1
     9     3     4    1
    10     4     5    1
    11     5     6    1
    12     6     7    1
    13     7     8    1
    14     3     9    1
    15     9    10    1
    16    10    11   ar
    17    11    12   ar
    18    12    13   ar
    19    13    14   ar
    20    14    15   ar
    21    20    21   ar
    22    21    22   ar
    23    22    17   ar
    24    15     1    1
    25     8     3    1
    26    15    10   ar
    27     6    16    1
@<TRIPOS>MOLECULE
*****
 24 27 0 0 0
SMALL
GASTEIGER

@<TRIPOS>ATOM
      1 C         141.1361  142.2696  164.9833 C.2     1  UNL1        0.0020
      2 C         142.5209  142.0234  164.4617 C.2     1  UNL1        0.0130
      3 C         142.9491  142.6270  163.1570 C.3     1  UNL1        0.1542
      4 C         143.9055  141.7773  163.9400 C.3     1  UNL1        0.0614
      5 C         145.2901  141.5311  163.4183 C.3     1  UNL1        0.0725
      6 N         145.7183  142.1347  162.1136 N.3     1  UNL1       -0.2972
      7 C         144.7619  142.9845  161.3306 C.3     1  UNL1        0.0725
      8 C         143.3773  143.2306  161.8522 C.3     1  UNL1        0.0614
      9 O         141.9926  143.4768  162.3739 O.3     1  UNL1       -0.4785
     10 C         140.6080  143.7229  162.8956 C.ar    1  UNL1        0.1386
     11 C         139.6515  144.5727  162.1125 C.ar    1  UNL1        0.0369
     12 C         138.2669  144.8189  162.6342 C.ar    1  UNL1        0.0031
     13 C         137.8387  144.2152  163.9389 C.ar    1  UNL1        0.0002
     14 C         138.7950  143.3655  164.7220 C.ar    1  UNL1        0.0030
     15 C         140.1798  143.1193  164.2003 C.ar    1  UNL1        0.0338
     16 H         145.9901  141.3615  161.5065 H       1  UNL1        0.1233
     17 C         139.8514  140.4587  168.8974 C.ar    1  UNL1        0.0684
     18 C         140.5774  141.7712  168.8807 C.ar    1  UNL1        0.0103
     19 C         141.0056  142.3748  167.5760 C.ar    1  UNL1        0.0007
     20 C         140.7079  141.6659  166.2880 C.ar    1  UNL1       -0.0001
     21 C         139.9819  140.3534  166.3047 C.ar    1  UNL1        0.0007
     22 C         139.5537  139.7497  167.6095 C.ar    1  UNL1        0.0103
     23 N         138.9950  139.2514  171.5068 N.1     1  UNL1       -0.1908
     24 C         139.4232  139.8551  170.2021 C.1     1  UNL1        0.1004
@<TRIPOS>BOND
     1    23    24    3
     2    24    17    1
     3    17    18   ar
     4    18    19   ar
     5    19    20   ar
     6    20     1    1
     7     1     2    2
     8     2     3    1
     9     3     4    1
    10     4     5    1
    11     5     6    1
    12     6     7    1
    13     7     8    1
    14     3     9    1
    15     9    10    1
    16    10    11   ar
    17    11    12   ar
    18    12    13   ar
    19    13    14   ar
    20    14    15   ar
    21    20    21   ar
    22    21    22   ar
    23    22    17   ar
    24    15     1    1
    25     8     3    1
    26    15    10   ar
    27     6    16    1
@<TRIPOS>MOLECULE
*****
 24 27 0 0 0
SMALL
GASTEIGER

@<TRIPOS>ATOM
      1 C         141.5271  142.5578  164.6944 C.2     1  UNL1        0.0020
      2 C         140.6343  143.5074  163.9518 C.2     1  UNL1        0.0130
      3 C         141.0962  144.1175  162.6617 C.3     1  UNL1        0.1542
      4 C         139.7417  144.4570  163.2093 C.3     1  UNL1        0.0614
      5 C         138.8490  145.4065  162.4668 C.3     1  UNL1        0.0725
      6 N         139.3109  146.0166  161.1766 N.3     1  UNL1       -0.2972
      7 C         140.6654  145.6772  160.6290 C.3     1  UNL1        0.0725
      8 C         141.5581  144.7276  161.3716 C.3     1  UNL1        0.0614
      9 O         142.4509  143.7780  162.1141 O.3     1  UNL1       -0.4785
     10 C         143.3435  142.8284  162.8567 C.ar    1  UNL1        0.1386
     11 C         144.6982  142.4889  162.3091 C.ar    1  UNL1        0.0369
     12 C         145.5908  141.5394  163.0516 C.ar    1  UNL1        0.0031
     13 C         145.1290  140.9293  164.3417 C.ar    1  UNL1        0.0002
     14 C         143.7744  141.2687  164.8893 C.ar    1  UNL1        0.0030
     15 C         142.8816  142.2183  164.1468 C.ar    1  UNL1        0.0338
     16 H         139.2904  147.0283  161.3053 H       1  UNL1        0.1233
     17 C         140.1415  140.7275  168.5648 C.ar    1  UNL1        0.0684
     18 C         139.7600  140.0973  167.2582 C.ar    1  UNL1        0.0103
     19 C         140.2219  140.7074  165.9681 C.ar    1  UNL1        0.0007
     20 C         141.0652  141.9477  165.9845 C.ar    1  UNL1       -0.0001
     21 C         141.4467  142.5780  167.2912 C.ar    1  UNL1        0.0007
     22 C         140.9849  141.9679  168.5813 C.ar    1  UNL1        0.0103
     23 N         139.2177  139.5073  171.1451 N.1     1  UNL1       -0.1908
     24 C         139.6796  140.1174  169.8549 C.1     1  UNL1        0.1004
@<TRIPOS>BOND
     1    23    24    3
     2    24    17    1
     3    17    18   ar
     4    18    19   ar
     5    19    20   ar
     6    20     1    1
     7     1     2    2
     8     2     3    1
     9     3     4    1
    10     4     5    1
    11     5     6    1
    12     6     7    1
    13     7     8    1
    14     3     9    1
    15     9    10    1
    16    10    11   ar
    17    11    12   ar
    18    12    13   ar
    19    13    14   ar
    20    14    15   ar
    21    20    21   ar
    22    21    22   ar
    23    22    17   ar
    24    15     1    1
    25     8     3    1
    26    15    10   ar
    27     6    16    1
@<TRIPOS>MOLECULE
*****
 24 27 0 0 0
SMALL
GASTEIGER

@<TRIPOS>ATOM
      1 C         141.5836  141.1879  166.3464 C.2     1  UNL1        0.0020
      2 C         142.0919  141.7561  167.6382 C.2     1  UNL1        0.0130
      3 C         141.3730  141.4618  168.9214 C.3     1  UNL1        0.1542
      4 C         142.6002  142.3243  168.9300 C.3     1  UNL1        0.0614
      5 C         143.1084  142.8925  170.2219 C.3     1  UNL1        0.0725
      6 N         142.3895  142.5982  171.5050 N.3     1  UNL1       -0.2972
      7 C         141.1623  141.7357  171.4964 C.3     1  UNL1        0.0725
      8 C         140.6540  141.1676  170.2046 C.3     1  UNL1        0.0614
      9 O         140.1457  140.5993  168.9127 O.3     1  UNL1       -0.4785
     10 C         139.6375  140.0312  167.6209 C.ar    1  UNL1        0.1386
     11 C         138.4102  139.1687  167.6122 C.ar    1  UNL1        0.0369
     12 C         137.9020  138.6005  166.3204 C.ar    1  UNL1        0.0031
     13 C         138.6209  138.8948  165.0373 C.ar    1  UNL1        0.0002
     14 C         139.8481  139.7572  165.0459 C.ar    1  UNL1        0.0030
     15 C         140.3564  140.3254  166.3378 C.ar    1  UNL1        0.0338
     16 H         142.1150  143.4970  171.9015 H       1  UNL1        0.1233
     17 C         143.7404  142.0707  162.4969 C.ar    1  UNL1        0.0684
     18 C         144.1486  140.8938  163.3324 C.ar    1  UNL1        0.0103
     19 C         143.4297  140.5995  164.6156 C.ar    1  UNL1        0.0007
     20 C         142.3026  141.4822  165.0632 C.ar    1  UNL1       -0.0001
     21 C         141.8943  142.6592  164.2277 C.ar    1  UNL1        0.0007
     22 C         142.6132  142.9534  162.9445 C.ar    1  UNL1        0.0103
     23 N         145.1783  142.6593  159.9305 N.1     1  UNL1       -0.1908
     24 C         144.4594  142.3650  161.2137 C.1     1  UNL1        0.1004
@<TRIPOS>BOND
     1    23    24    3
     2    24    17    1
     3    17    18   ar
     4    18    19   ar
     5    19    20   ar
     6    20     1    1
     7     1     2    2
     8     2     3    1
     9     3     4    1
    10     4     5    1
    11     5     6    1
    12     6     7    1
    13     7     8    1
    14     3     9    1
    15     9    10    1
    16    10    11   ar
    17    11    12   ar
    18    12    13   ar
    19    13    14   ar
    20    14    15   ar
    21    20    21   ar
    22    21    22   ar
    23    22    17   ar
    24    15     1    1
    25     8     3    1
    26    15    10   ar
    27     6    16    1
@<TRIPOS>MOLECULE
*****
 24 27 0 0 0
SMALL
GASTEIGER

@<TRIPOS>ATOM
      1 C         140.0589  141.0917  164.9062 C.2     1  UNL1        0.0020
      2 C         140.7445  139.9218  164.2648 C.2     1  UNL1        0.0130
      3 C         140.6521  139.7192  162.7814 C.3     1  UNL1        0.1542
      4 C         141.4300  138.7519  163.6235 C.3     1  UNL1        0.0614
      5 C         142.1155  137.5820  162.9821 C.3     1  UNL1        0.0725
      6 N         142.0231  137.3795  161.4987 N.3     1  UNL1       -0.2972
      7 C         141.2452  138.3468  160.6567 C.3     1  UNL1        0.0725
      8 C         140.5597  139.5167  161.2980 C.3     1  UNL1        0.0614
      9 O         139.8741  140.6866  161.9394 O.3     1  UNL1       -0.4785
     10 C         139.1886  141.8565  162.5807 C.ar    1  UNL1        0.1386
     11 C         138.4106  142.8239  161.7387 C.ar    1  UNL1        0.0369
     12 C         137.7251  143.9938  162.3801 C.ar    1  UNL1        0.0031
     13 C         137.8175  144.1964  163.8634 C.ar    1  UNL1        0.0002
     14 C         138.5954  143.2290  164.7055 C.ar    1  UNL1        0.0030
     15 C         139.2810  142.0591  164.0641 C.ar    1  UNL1        0.0338
     16 H         141.6060  136.4602  161.3525 H       1  UNL1        0.1233
     17 C         140.3361  141.6994  169.3563 C.ar    1  UNL1        0.0684
     18 C         140.9719  142.6870  168.4235 C.ar    1  UNL1        0.0103
     19 C         140.8795  142.4845  166.9401 C.ar    1  UNL1        0.0007
     20 C         140.1513  141.2943  166.3895 C.ar    1  UNL1       -0.0001
     21 C         139.5154  140.3066  167.3224 C.ar    1  UNL1        0.0007
     22 C         139.6078  140.5091  168.8058 C.ar    1  UNL1        0.0103
     23 N         140.5209  142.1045  172.3231 N.1     1  UNL1       -0.1908
     24 C         140.4285  141.9020  170.8397 C.1     1  UNL1        0.1004
@<TRIPOS>BOND
     1    23    24    3
     2    24    17    1
     3    17    18   ar
     4    18    19   ar
     5    19    20   ar
     6    20     1    1
     7     1     2    2
     8     2     3    1
     9     3     4    1
    10     4     5    1
    11     5     6    1
    12     6     7    1
    13     7     8    1
    14     3     9    1
    15     9    10    1
    16    10    11   ar
    17    11    12   ar
    18    12    13   ar
    19    13    14   ar
    20    14    15   ar
    21    20    21   ar
    22    21    22   ar
    23    22    17   ar
    24    15     1    1
    25     8     3    1
    26    15    10   ar
    27     6    16    1
@<TRIPOS>MOLECULE
*****
 24 27 0 0 0
SMALL
GASTEIGER

@<TRIPOS>ATOM
      1 C         141.6528  140.7592  164.8673 C.2     1  UNL1        0.0020
      2 C         142.6953  141.5175  164.1002 C.2     1  UNL1        0.0130
      3 C         142.9104  141.2318  162.6435 C.3     1  UNL1        0.1542
      4 C         143.7377  142.2758  163.3332 C.3     1  UNL1        0.0614
      5 C         144.7801  143.0340  162.5661 C.3     1  UNL1        0.0725
      6 N         144.9952  142.7483  161.1094 N.3     1  UNL1       -0.2972
      7 C         144.1680  141.7043  160.4197 C.3     1  UNL1        0.0725
      8 C         143.1255  140.9461  161.1868 C.3     1  UNL1        0.0614
      9 O         142.0831  140.1878  161.9538 O.3     1  UNL1       -0.4785
     10 C         141.0406  139.4295  162.7208 C.ar    1  UNL1        0.1386
     11 C         140.2133  138.3855  162.0312 C.ar    1  UNL1        0.0369
     12 C         139.1709  137.6273  162.7982 C.ar    1  UNL1        0.0031
     13 C         138.9557  137.9130  164.2549 C.ar    1  UNL1        0.0002
     14 C         139.7830  138.9570  164.9446 C.ar    1  UNL1        0.0030
     15 C         140.8255  139.7153  164.1776 C.ar    1  UNL1        0.0338
     16 H         145.9703  142.4675  161.0053 H       1  UNL1        0.1233
     17 C         141.0074  141.6164  169.2375 C.ar    1  UNL1        0.0684
     18 C         140.3957  142.5100  168.1996 C.ar    1  UNL1        0.0103
     19 C         140.6108  142.2243  166.7429 C.ar    1  UNL1        0.0007
     20 C         141.4376  141.0449  166.3240 C.ar    1  UNL1       -0.0001
     21 C         142.0494  140.1512  167.3619 C.ar    1  UNL1        0.0007
     22 C         141.8342  140.4370  168.8187 C.ar    1  UNL1        0.0103
     23 N         140.5771  142.1878  172.1510 N.1     1  UNL1       -0.1908
     24 C         140.7922  141.9021  170.6942 C.1     1  UNL1        0.1004
@<TRIPOS>BOND
     1    23    24    3
     2    24    17    1
     3    17    18   ar
     4    18    19   ar
     5    19    20   ar
     6    20     1    1
     7     1     2    2
     8     2     3    1
     9     3     4    1
    10     4     5    1
    11     5     6    1
    12     6     7    1
    13     7     8    1
    14     3     9    1
    15     9    10    1
    16    10    11   ar
    17    11    12   ar
    18    12    13   ar
    19    13    14   ar
    20    14    15   ar
    21    20    21   ar
    22    21    22   ar
    23    22    17   ar
    24    15     1    1
    25     8     3    1
    26    15    10   ar
    27     6    16    1
@<TRIPOS>MOLECULE
*****
 24 27 0 0 0
SMALL
GASTEIGER

@<TRIPOS>ATOM
      1 C         140.4502  141.3380  164.4237 C.2     1  UNL1        0.0020
      2 C         140.7367  142.7805  164.1279 C.2     1  UNL1        0.0130
      3 C         140.1568  143.4245  162.9036 C.3     1  UNL1        0.1542
      4 C         141.0232  144.2228  163.8321 C.3     1  UNL1        0.0614
      5 C         141.3096  145.6652  163.5363 C.3     1  UNL1        0.0725
      6 N         140.7297  146.3092  162.3120 N.3     1  UNL1       -0.2972
      7 C         139.8633  145.5109  161.3835 C.3     1  UNL1        0.0725
      8 C         139.5769  144.0686  161.6793 C.3     1  UNL1        0.0614
      9 O         139.2904  142.6262  161.9751 O.3     1  UNL1       -0.4785
     10 C         139.0040  141.1838  162.2709 C.ar    1  UNL1        0.1386
     11 C         138.1376  140.3855  161.3423 C.ar    1  UNL1        0.0369
     12 C         137.8512  138.9431  161.6381 C.ar    1  UNL1        0.0031
     13 C         138.4311  138.2990  162.8624 C.ar    1  UNL1        0.0002
     14 C         139.2974  139.0973  163.7909 C.ar    1  UNL1        0.0030
     15 C         139.5839  140.5398  163.4952 C.ar    1  UNL1        0.0338
     16 H         141.5155  146.6523  161.7595 H       1  UNL1        0.1233
     17 C         142.1899  139.4058  168.0965 C.ar    1  UNL1        0.0684
     18 C         142.9202  139.3243  166.7888 C.ar    1  UNL1        0.0103
     19 C         142.3402  139.9683  165.5645 C.ar    1  UNL1        0.0007
     20 C         141.0301  140.6940  165.6479 C.ar    1  UNL1       -0.0001
     21 C         140.2999  140.7756  166.9557 C.ar    1  UNL1        0.0007
     22 C         140.8798  140.1315  168.1800 C.ar    1  UNL1        0.0103
     23 N         143.3498  138.1177  170.5451 N.1     1  UNL1       -0.1908
     24 C         142.7698  138.7618  169.3208 C.1     1  UNL1        0.1004
@<TRIPOS>BOND
     1    23    24    3
     2    24    17    1
     3    17    18   ar
     4    18    19   ar
     5    19    20   ar
     6    20     1    1
     7     1     2    2
     8     2     3    1
     9     3     4    1
    10     4     5    1
    11     5     6    1
    12     6     7    1
    13     7     8    1
    14     3     9    1
    15     9    10    1
    16    10    11   ar
    17    11    12   ar
    18    12    13   ar
    19    13    14   ar
    20    14    15   ar
    21    20    21   ar
    22    21    22   ar
    23    22    17   ar
    24    15     1    1
    25     8     3    1
    26    15    10   ar
    27     6    16    1
@<TRIPOS>MOLECULE
*****
 24 27 0 0 0
SMALL
GASTEIGER

@<TRIPOS>ATOM
      1 C         141.7300  141.7236  164.4507 C.2     1  UNL1        0.0020
      2 C         142.5263  140.6832  163.7202 C.2     1  UNL1        0.0130
      3 C         142.7381  140.8033  162.2401 C.3     1  UNL1        0.1542
      4 C         143.3225  139.6429  162.9897 C.3     1  UNL1        0.0614
      5 C         144.1188  138.6026  162.2592 C.3     1  UNL1        0.0725
      6 N         144.3307  138.7226  160.7791 N.3     1  UNL1       -0.2972
      7 C         143.7463  139.8830  160.0295 C.3     1  UNL1        0.0725
      8 C         142.9500  140.9233  160.7600 C.3     1  UNL1        0.0614
      9 O         142.1537  141.9637  161.4905 O.3     1  UNL1       -0.4785
     10 C         141.3574  143.0040  162.2210 C.ar    1  UNL1        0.1386
     11 C         140.7730  144.1645  161.4714 C.ar    1  UNL1        0.0369
     12 C         139.9767  145.2048  162.2019 C.ar    1  UNL1        0.0031
     13 C         139.7648  145.0847  163.6820 C.ar    1  UNL1        0.0002
     14 C         140.3492  143.9244  164.4316 C.ar    1  UNL1        0.0030
     15 C         141.1456  142.8840  163.7011 C.ar    1  UNL1        0.0338
     16 H         143.9477  137.8766  160.3572 H       1  UNL1        0.1233
     17 C         141.0944  141.3634  168.8910 C.ar    1  UNL1        0.0684
     18 C         142.3169  142.0528  168.3618 C.ar    1  UNL1        0.0103
     19 C         142.5288  142.1729  166.8817 C.ar    1  UNL1        0.0007
     20 C         141.5181  141.6035  165.9308 C.ar    1  UNL1       -0.0001
     21 C         140.2955  140.9141  166.4599 C.ar    1  UNL1        0.0007
     22 C         140.0836  140.7940  167.9400 C.ar    1  UNL1        0.0103
     23 N         140.6706  141.1233  171.8512 N.1     1  UNL1       -0.1908
     24 C         140.8825  141.2434  170.3711 C.1     1  UNL1        0.1004
@<TRIPOS>BOND
     1    23    24    3
     2    24    17    1
     3    17    18   ar
     4    18    19   ar
     5    19    20   ar
     6    20     1    1
     7     1     2    2
     8     2     3    1
     9     3     4    1
    10     4     5    1
    11     5     6    1
    12     6     7    1
    13     7     8    1
    14     3     9    1
    15     9    10    1
    16    10    11   ar
    17    11    12   ar
    18    12    13   ar
    19    13    14   ar
    20    14    15   ar
    21    20    21   ar
    22    21    22   ar
    23    22    17   ar
    24    15     1    1
    25     8     3    1
    26    15    10   ar
    27     6    16    1
