@<TRIPOS>MOLECULE
*****
 42 46 0 0 0
SMALL
GASTEIGER

@<TRIPOS>ATOM
      1 C         138.6104  141.3471  156.9085 C.3     1  UNL1        0.0317
      2 C         139.1527  139.9821  156.6042 C.ar    1  UNL1       -0.0141
      3 C         139.4247  139.5824  155.1843 C.ar    1  UNL1       -0.0024
      4 C         139.9670  138.2175  154.8800 C.ar    1  UNL1        0.0144
      5 C         140.2373  137.2519  155.9957 C.ar    1  UNL1        0.0511
      6 C         139.9653  137.6516  157.4157 C.ar    1  UNL1        0.0226
      7 C         139.4230  139.0166  157.7199 C.ar    1  UNL1        0.0393
      8 N         140.7796  135.8869  155.6915 N.am    1  UNL1       -0.2804
      9 C         142.1784  135.5280  156.0972 C.2     1  UNL1        0.2495
     10 O         143.0349  136.5342  156.8071 O.2     1  UNL1       -0.2698
     11 H         140.2175  135.2265  155.2255 H       1  UNL1        0.1552
     12 C         142.7207  134.1630  155.7930 C.ar    1  UNL1        0.0536
     13 C         142.4817  133.5436  154.4479 C.ar    1  UNL1        0.0045
     14 C         143.0240  132.1786  154.1437 C.ar    1  UNL1        0.0001
     15 C         143.8053  131.4329  155.1846 C.ar    1  UNL1        0.0039
     16 C         144.0444  132.0521  156.5297 C.ar    1  UNL1        0.0716
     17 C         143.5020  133.4173  156.8338 C.ar    1  UNL1        0.0084
     18 C         144.8256  131.3065  157.5706 C.3     1  UNL1        0.4186
     19 F         145.6069  130.5608  158.6115 F       1  UNL1       -0.1659
     20 F         144.5492  130.0176  156.8547 F       1  UNL1       -0.1659
     21 F         145.1021  132.5954  158.2865 F       1  UNL1       -0.1659
     22 C         139.1510  139.4162  159.1399 C.1     1  UNL1       -0.0585
     23 C         138.8791  139.8159  160.5599 C.1     1  UNL1       -0.0386
     24 C         138.6071  140.2156  161.9799 C.ar    1  UNL1        0.1481
     25 N         138.5848  139.2970  163.1655 N.ar    1  UNL1       -0.1595
     26 N         138.2735  140.1177  164.3818 N.ar    1  UNL1       -0.2333
     27 C         138.1035  141.5435  163.9480 C.ar    1  UNL1        0.1659
     28 N         137.7875  142.7945  164.7129 N.ar    1  UNL1       -0.2050
     29 C         137.6777  144.1059  163.9933 C.ar    1  UNL1        0.2014
     30 N         137.8839  144.1664  162.5088 N.ar    1  UNL1       -0.2093
     31 C         138.1998  142.9154  161.7438 C.ar    1  UNL1        0.1322
     32 N         138.4060  142.9759  160.2593 N.pl3   1  UNL1       -0.3424
     33 C         138.3096  141.6040  162.4635 C.ar    1  UNL1        0.0938
     34 H         138.3339  143.8367  159.7870 H       1  UNL1        0.1437
     35 H         138.6133  142.1548  159.7573 H       1  UNL1        0.1437
     36 C         138.1534  139.6030  165.7856 C.3     1  UNL1        0.1305
     37 C         139.3061  139.7396  166.7358 C.3     1  UNL1        0.0418
     38 C         140.7585  139.7672  166.3618 C.3     1  UNL1        0.0207
     39 C         141.5588  139.9172  167.6216 C.3     1  UNL1        0.0722
     40 N         140.6010  139.9824  168.7741 N.3     1  UNL1       -0.2714
     41 C         140.9706  140.1312  170.2202 C.3     1  UNL1        0.0896
     42 C         139.2088  139.8726  168.2267 C.3     1  UNL1        0.0741
@<TRIPOS>BOND
     1     1     2    1
     2     2     3   ar
     3     3     4   ar
     4     4     5   ar
     5     5     8    1
     6     8     9   am
     7     9    10    2
     8     9    12    1
     9    12    13   ar
    10    13    14   ar
    11    14    15   ar
    12    15    16   ar
    13    16    18    1
    14    18    19    1
    15    18    20    1
    16    18    21    1
    17    16    17   ar
    18     5     6   ar
    19     6     7   ar
    20     7    22    1
    21    22    23    3
    22    23    24    1
    23    24    25   ar
    24    25    26   ar
    25    26    36    1
    26    36    37    1
    27    37    38    1
    28    38    39    1
    29    39    40    1
    30    40    41    1
    31    40    42    1
    32    26    27   ar
    33    27    28   ar
    34    28    29   ar
    35    29    30   ar
    36    30    31   ar
    37    31    32    1
    38    31    33   ar
    39     7     2   ar
    40    33    24   ar
    41    17    12   ar
    42    42    37    1
    43    33    27   ar
    44     8    11    1
    45    32    34    1
    46    32    35    1
@<TRIPOS>MOLECULE
*****
 42 46 0 0 0
SMALL
GASTEIGER

@<TRIPOS>ATOM
      1 C         144.4403  142.5197  159.1629 C.3     1  UNL1        0.0317
      2 C         144.1967  142.1504  160.5961 C.ar    1  UNL1       -0.0141
      3 C         144.5499  143.1145  161.6896 C.ar    1  UNL1       -0.0024
      4 C         144.3063  142.7453  163.1228 C.ar    1  UNL1        0.0144
      5 C         143.7095  141.4117  163.4627 C.ar    1  UNL1        0.0511
      6 C         143.3563  140.4475  162.3693 C.ar    1  UNL1        0.0226
      7 C         143.5999  140.8169  160.9360 C.ar    1  UNL1        0.0393
      8 N         143.4659  141.0424  164.8960 N.am    1  UNL1       -0.2804
      9 C         142.2146  141.4987  165.5858 C.2     1  UNL1        0.2495
     10 O         141.2068  142.3244  164.8423 O.2     1  UNL1       -0.2698
     11 H         144.1273  140.5004  165.3839 H       1  UNL1        0.1552
     12 C         141.9710  141.1293  167.0190 C.ar    1  UNL1        0.0536
     13 C         142.5772  139.8795  167.5849 C.ar    1  UNL1        0.0045
     14 C         142.3336  139.5101  169.0182 C.ar    1  UNL1        0.0001
     15 C         141.4837  140.3907  169.8856 C.ar    1  UNL1        0.0039
     16 C         140.8775  141.6406  169.3198 C.ar    1  UNL1        0.0716
     17 C         141.1211  142.0099  167.8864 C.ar    1  UNL1        0.0084
     18 C         140.0276  142.5212  170.1870 C.3     1  UNL1        0.4186
     19 F         139.1777  143.4017  171.0544 F       1  UNL1       -0.1659
     20 F         138.9647  141.4633  170.2195 F       1  UNL1       -0.1659
     21 F         141.0905  143.5791  170.1546 F       1  UNL1       -0.1659
     22 C         143.2467  139.8527  159.8426 C.1     1  UNL1       -0.0585
     23 C         142.8934  138.8885  158.7491 C.1     1  UNL1       -0.0386
     24 C         142.5402  137.9243  157.6557 C.ar    1  UNL1        0.1481
     25 N         143.4537  136.8952  157.0585 N.ar    1  UNL1       -0.1595
     26 N         142.6896  136.1549  156.0012 N.ar    1  UNL1       -0.2333
     27 C         141.3038  136.7263  155.9449 C.ar    1  UNL1        0.1659
     28 N         140.1141  136.3922  155.0947 N.ar    1  UNL1       -0.2050
     29 C         138.8322  137.1517  155.2670 C.ar    1  UNL1        0.2014
     30 N         138.7399  138.2452  156.2895 N.ar    1  UNL1       -0.2093
     31 C         139.9296  138.5794  157.1397 C.ar    1  UNL1        0.1322
     32 N         139.8373  139.6729  158.1623 N.pl3   1  UNL1       -0.3424
     33 C         141.2115  137.8199  156.9675 C.ar    1  UNL1        0.0938
     34 H         138.9959  140.1714  158.2754 H       1  UNL1        0.1437
     35 H         140.6181  139.8922  158.7203 H       1  UNL1        0.1437
     36 C         143.2183  135.0389  155.1497 C.3     1  UNL1        0.1305
     37 C         142.8969  133.6150  155.4951 C.3     1  UNL1        0.0418
     38 C         141.7673  132.8045  154.9319 C.3     1  UNL1        0.0207
     39 C         141.8210  131.4402  155.5530 C.3     1  UNL1        0.0722
     40 N         142.9838  131.4075  156.5000 N.3     1  UNL1       -0.2714
     41 C         143.4073  130.2363  157.3361 C.3     1  UNL1        0.0896
     42 C         143.6487  132.7516  156.4642 C.3     1  UNL1        0.0741
@<TRIPOS>BOND
     1     1     2    1
     2     2     3   ar
     3     3     4   ar
     4     4     5   ar
     5     5     8    1
     6     8     9   am
     7     9    10    2
     8     9    12    1
     9    12    13   ar
    10    13    14   ar
    11    14    15   ar
    12    15    16   ar
    13    16    18    1
    14    18    19    1
    15    18    20    1
    16    18    21    1
    17    16    17   ar
    18     5     6   ar
    19     6     7   ar
    20     7    22    1
    21    22    23    3
    22    23    24    1
    23    24    25   ar
    24    25    26   ar
    25    26    36    1
    26    36    37    1
    27    37    38    1
    28    38    39    1
    29    39    40    1
    30    40    41    1
    31    40    42    1
    32    26    27   ar
    33    27    28   ar
    34    28    29   ar
    35    29    30   ar
    36    30    31   ar
    37    31    32    1
    38    31    33   ar
    39     7     2   ar
    40    33    24   ar
    41    17    12   ar
    42    42    37    1
    43    33    27   ar
    44     8    11    1
    45    32    34    1
    46    32    35    1
@<TRIPOS>MOLECULE
*****
 42 46 0 0 0
SMALL
GASTEIGER

@<TRIPOS>ATOM
      1 C         141.7582  138.3464  158.8691 C.3     1  UNL1        0.0317
      2 C         141.4377  138.5952  160.3132 C.ar    1  UNL1       -0.0141
      3 C         142.2987  137.9975  161.3863 C.ar    1  UNL1       -0.0024
      4 C         141.9783  138.2462  162.8303 C.ar    1  UNL1        0.0144
      5 C         140.7968  139.0927  163.2015 C.ar    1  UNL1        0.0511
      6 C         139.9358  139.6904  162.1284 C.ar    1  UNL1        0.0226
      7 C         140.2563  139.4416  160.6843 C.ar    1  UNL1        0.0393
      8 N         140.4763  139.3415  164.6455 N.am    1  UNL1       -0.2804
      9 C         141.1589  140.4542  165.3843 C.2     1  UNL1        0.2495
     10 O         142.1621  141.3182  164.6791 O.2     1  UNL1       -0.2698
     11 H         139.8179  138.7745  165.1084 H       1  UNL1        0.1552
     12 C         140.8385  140.7030  166.8284 C.ar    1  UNL1        0.0536
     13 C         139.6651  140.0190  167.4649 C.ar    1  UNL1        0.0045
     14 C         139.3446  140.2678  168.9090 C.ar    1  UNL1        0.0001
     15 C         140.1975  141.2007  169.7166 C.ar    1  UNL1        0.0039
     16 C         141.3710  141.8848  169.0802 C.ar    1  UNL1        0.0716
     17 C         141.6914  141.6359  167.6360 C.ar    1  UNL1        0.0084
     18 C         142.2240  142.8176  169.8877 C.3     1  UNL1        0.4186
     19 F         143.0771  143.7504  170.6952 F       1  UNL1       -0.1659
     20 F         143.3175  141.7912  169.9182 F       1  UNL1       -0.1659
     21 F         141.1306  143.8440  169.8572 F       1  UNL1       -0.1659
     22 C         139.3953  140.0393  159.6112 C.1     1  UNL1       -0.0585
     23 C         138.5344  140.6370  158.5381 C.1     1  UNL1       -0.0386
     24 C         137.6734  141.2347  157.4650 C.ar    1  UNL1        0.1481
     25 N         136.4486  140.6088  156.8666 N.ar    1  UNL1       -0.1595
     26 N         135.9044  141.5505  155.8337 N.ar    1  UNL1       -0.2333
     27 C         136.7928  142.7584  155.7937 C.ar    1  UNL1        0.1659
     28 N         136.7475  144.0108  154.9694 N.ar    1  UNL1       -0.2050
     29 C         137.7955  145.0680  155.1534 C.ar    1  UNL1        0.2014
     30 N         138.8888  144.8729  156.1616 N.ar    1  UNL1       -0.2093
     31 C         138.9342  143.6205  156.9858 C.ar    1  UNL1        0.1322
     32 N         140.0275  143.4253  157.9941 N.pl3   1  UNL1       -0.3424
     33 C         137.8861  142.5633  156.8019 C.ar    1  UNL1        0.0938
     34 H         140.7154  144.1192  158.1148 H       1  UNL1        0.1437
     35 H         140.0573  142.6033  158.5350 H       1  UNL1        0.1437
     36 C         134.6856  141.3241  154.9890 C.3     1  UNL1        0.1305
     37 C         133.4063  140.8673  155.6254 C.3     1  UNL1        0.0418
     38 C         132.0449  141.4491  155.3846 C.3     1  UNL1        0.0207
     39 C         131.0611  140.6899  156.2246 C.3     1  UNL1        0.0722
     40 N         131.8145  139.6389  156.9847 N.3     1  UNL1       -0.2714
     41 C         131.2224  138.6516  157.9462 C.3     1  UNL1        0.0896
     42 C         133.2639  139.7485  156.6144 C.3     1  UNL1        0.0741
@<TRIPOS>BOND
     1     1     2    1
     2     2     3   ar
     3     3     4   ar
     4     4     5   ar
     5     5     8    1
     6     8     9   am
     7     9    10    2
     8     9    12    1
     9    12    13   ar
    10    13    14   ar
    11    14    15   ar
    12    15    16   ar
    13    16    18    1
    14    18    19    1
    15    18    20    1
    16    18    21    1
    17    16    17   ar
    18     5     6   ar
    19     6     7   ar
    20     7    22    1
    21    22    23    3
    22    23    24    1
    23    24    25   ar
    24    25    26   ar
    25    26    36    1
    26    36    37    1
    27    37    38    1
    28    38    39    1
    29    39    40    1
    30    40    41    1
    31    40    42    1
    32    26    27   ar
    33    27    28   ar
    34    28    29   ar
    35    29    30   ar
    36    30    31   ar
    37    31    32    1
    38    31    33   ar
    39     7     2   ar
    40    33    24   ar
    41    17    12   ar
    42    42    37    1
    43    33    27   ar
    44     8    11    1
    45    32    34    1
    46    32    35    1
@<TRIPOS>MOLECULE
*****
 42 46 0 0 0
SMALL
GASTEIGER

@<TRIPOS>ATOM
      1 C         141.1121  143.7961  158.8701 C.3     1  UNL1        0.0317
      2 C         141.0381  143.4921  160.3371 C.ar    1  UNL1       -0.0141
      3 C         140.8357  144.6033  161.3241 C.ar    1  UNL1       -0.0024
      4 C         140.7617  144.2994  162.7911 C.ar    1  UNL1        0.0144
      5 C         140.8902  142.8840  163.2712 C.ar    1  UNL1        0.0511
      6 C         141.0927  141.7728  162.2842 C.ar    1  UNL1        0.0226
      7 C         141.1666  142.0768  160.8172 C.ar    1  UNL1        0.0393
      8 N         140.8163  142.5800  164.7382 N.am    1  UNL1       -0.2804
      9 C         142.0716  142.5282  165.5576 C.2     1  UNL1        0.2495
     10 O         143.4009  142.7804  164.9100 O.2     1  UNL1       -0.2698
     11 H         139.9438  142.4144  165.1632 H       1  UNL1        0.1552
     12 C         141.9976  142.2241  167.0246 C.ar    1  UNL1        0.0536
     13 C         143.2095  142.4043  167.8899 C.ar    1  UNL1        0.0045
     14 C         143.1355  142.1003  169.3569 C.ar    1  UNL1        0.0001
     15 C         141.8497  141.6160  169.9586 C.ar    1  UNL1        0.0039
     16 C         140.6378  141.4357  169.0933 C.ar    1  UNL1        0.0716
     17 C         140.7118  141.7398  167.6262 C.ar    1  UNL1        0.0084
     18 C         139.3519  140.9514  169.6948 C.3     1  UNL1        0.4186
     19 F         138.0660  140.4670  170.2963 F       1  UNL1       -0.1659
     20 F         139.4544  139.6863  168.8954 F       1  UNL1       -0.1659
     21 F         139.2493  142.2165  170.4943 F       1  UNL1       -0.1659
     22 C         141.3691  140.9656  159.8302 C.1     1  UNL1       -0.0585
     23 C         141.5715  139.8543  158.8432 C.1     1  UNL1       -0.0386
     24 C         141.7740  138.7430  157.8562 C.ar    1  UNL1        0.1481
     25 N         143.0281  137.9398  157.6779 N.ar    1  UNL1       -0.1595
     26 N         142.7870  136.9403  156.5857 N.ar    1  UNL1       -0.2333
     27 C         141.3839  137.1258  156.0890 C.ar    1  UNL1        0.1659
     28 N         140.5954  136.4242  155.0232 N.ar    1  UNL1       -0.2050
     29 C         139.1808  136.8367  154.7427 C.ar    1  UNL1        0.2014
     30 N         138.5547  137.9508  155.5279 N.ar    1  UNL1       -0.2093
     31 C         139.3432  138.6525  156.5937 C.ar    1  UNL1        0.1322
     32 N         138.7170  139.7667  157.3789 N.pl3   1  UNL1       -0.3424
     33 C         140.7577  138.2400  156.8743 C.ar    1  UNL1        0.0938
     34 H         137.7886  140.0374  157.1947 H       1  UNL1        0.1437
     35 H         139.2345  140.2272  158.0784 H       1  UNL1        0.1437
     36 C         143.7756  135.9322  156.0791 C.3     1  UNL1        0.1305
     37 C         143.5181  134.4670  156.2716 C.3     1  UNL1        0.0418
     38 C         144.0471  133.6183  157.3896 C.3     1  UNL1        0.0207
     39 C         143.5424  132.2201  157.1888 C.3     1  UNL1        0.0722
     40 N         142.7015  132.2047  155.9468 N.3     1  UNL1       -0.2714
     41 C         141.9990  131.0103  155.3724 C.3     1  UNL1        0.0896
     42 C         142.6865  133.5934  155.3799 C.3     1  UNL1        0.0741
@<TRIPOS>BOND
     1     1     2    1
     2     2     3   ar
     3     3     4   ar
     4     4     5   ar
     5     5     8    1
     6     8     9   am
     7     9    10    2
     8     9    12    1
     9    12    13   ar
    10    13    14   ar
    11    14    15   ar
    12    15    16   ar
    13    16    18    1
    14    18    19    1
    15    18    20    1
    16    18    21    1
    17    16    17   ar
    18     5     6   ar
    19     6     7   ar
    20     7    22    1
    21    22    23    3
    22    23    24    1
    23    24    25   ar
    24    25    26   ar
    25    26    36    1
    26    36    37    1
    27    37    38    1
    28    38    39    1
    29    39    40    1
    30    40    41    1
    31    40    42    1
    32    26    27   ar
    33    27    28   ar
    34    28    29   ar
    35    29    30   ar
    36    30    31   ar
    37    31    32    1
    38    31    33   ar
    39     7     2   ar
    40    33    24   ar
    41    17    12   ar
    42    42    37    1
    43    33    27   ar
    44     8    11    1
    45    32    34    1
    46    32    35    1
@<TRIPOS>MOLECULE
*****
 42 46 0 0 0
SMALL
GASTEIGER

@<TRIPOS>ATOM
      1 C         138.8395  141.2220  156.7440 C.3     1  UNL1        0.0317
      2 C         139.3997  139.8552  156.4834 C.ar    1  UNL1       -0.0141
      3 C         139.7069  139.4258  155.0793 C.ar    1  UNL1       -0.0024
      4 C         140.2671  138.0590  154.8186 C.ar    1  UNL1        0.0144
      5 C         140.5202  137.1215  155.9619 C.ar    1  UNL1        0.0511
      6 C         140.2130  137.5509  157.3659 C.ar    1  UNL1        0.0226
      7 C         139.6528  138.9177  157.6266 C.ar    1  UNL1        0.0393
      8 N         141.0804  135.7547  155.7012 N.am    1  UNL1       -0.2804
      9 C         142.4962  135.4390  156.0834 C.2     1  UNL1        0.2495
     10 O         143.3517  136.4902  156.7262 O.2     1  UNL1       -0.2698
     11 H         140.5189  135.0648  155.2793 H       1  UNL1        0.1552
     12 C         143.0564  134.0722  155.8227 C.ar    1  UNL1        0.0536
     13 C         144.0701  133.4858  156.7600 C.ar    1  UNL1        0.0045
     14 C         144.6303  132.1190  156.4993 C.ar    1  UNL1        0.0001
     15 C         144.1768  131.3385  155.3012 C.ar    1  UNL1        0.0039
     16 C         143.1631  131.9249  154.3639 C.ar    1  UNL1        0.0716
     17 C         142.6029  133.2918  154.6247 C.ar    1  UNL1        0.0084
     18 C         142.7096  131.1445  153.1659 C.3     1  UNL1        0.4186
     19 F         142.2560  130.3642  151.9679 F       1  UNL1       -0.1659
     20 F         141.2941  131.5671  153.4266 F       1  UNL1       -0.1659
     21 F         144.1251  130.7220  152.9052 F       1  UNL1       -0.1659
     22 C         139.3456  139.3471  159.0306 C.1     1  UNL1       -0.0585
     23 C         139.0383  139.7766  160.4347 C.1     1  UNL1       -0.0386
     24 C         138.7312  140.2060  161.8387 C.ar    1  UNL1        0.1481
     25 N         138.7011  139.3165  163.0461 N.ar    1  UNL1       -0.1595
     26 N         138.3515  140.1611  164.2354 N.ar    1  UNL1       -0.2333
     27 C         138.1654  141.5726  163.7630 C.ar    1  UNL1        0.1659
     28 N         137.8127  142.8361  164.4902 N.ar    1  UNL1       -0.2050
     29 C         137.6946  144.1274  163.7362 C.ar    1  UNL1        0.2014
     30 N         137.9293  144.1552  162.2550 N.ar    1  UNL1       -0.2093
     31 C         138.2820  142.8916  161.5277 C.ar    1  UNL1        0.1322
     32 N         138.5167  142.9194  160.0464 N.pl3   1  UNL1       -0.3424
     33 C         138.4001  141.6003  162.2817 C.ar    1  UNL1        0.0938
     34 H         138.4392  143.7669  159.5516 H       1  UNL1        0.1437
     35 H         138.7482  142.0900  159.5691 H       1  UNL1        0.1437
     36 C         138.2123  139.6789  165.6489 C.3     1  UNL1        0.1305
     37 C         139.3783  139.7643  166.5888 C.3     1  UNL1        0.0418
     38 C         140.8271  139.7233  166.2023 C.3     1  UNL1        0.0207
     39 C         141.6444  139.8394  167.4548 C.3     1  UNL1        0.0722
     40 N         140.7007  139.9521  168.6152 N.3     1  UNL1       -0.2714
     41 C         141.0893  140.0875  170.0576 C.3     1  UNL1        0.0896
     42 C         139.3002  139.9057  168.0800 C.3     1  UNL1        0.0741
@<TRIPOS>BOND
     1     1     2    1
     2     2     3   ar
     3     3     4   ar
     4     4     5   ar
     5     5     8    1
     6     8     9   am
     7     9    10    2
     8     9    12    1
     9    12    13   ar
    10    13    14   ar
    11    14    15   ar
    12    15    16   ar
    13    16    18    1
    14    18    19    1
    15    18    20    1
    16    18    21    1
    17    16    17   ar
    18     5     6   ar
    19     6     7   ar
    20     7    22    1
    21    22    23    3
    22    23    24    1
    23    24    25   ar
    24    25    26   ar
    25    26    36    1
    26    36    37    1
    27    37    38    1
    28    38    39    1
    29    39    40    1
    30    40    41    1
    31    40    42    1
    32    26    27   ar
    33    27    28   ar
    34    28    29   ar
    35    29    30   ar
    36    30    31   ar
    37    31    32    1
    38    31    33   ar
    39     7     2   ar
    40    33    24   ar
    41    17    12   ar
    42    42    37    1
    43    33    27   ar
    44     8    11    1
    45    32    34    1
    46    32    35    1
@<TRIPOS>MOLECULE
*****
 42 46 0 0 0
SMALL
GASTEIGER

@<TRIPOS>ATOM
      1 C         142.9775  138.7415  158.5421 C.3     1  UNL1        0.0317
      2 C         142.5173  138.8109  159.9681 C.ar    1  UNL1       -0.0141
      3 C         143.0556  137.8411  160.9779 C.ar    1  UNL1       -0.0024
      4 C         142.5955  137.9105  162.4039 C.ar    1  UNL1        0.0144
      5 C         141.5971  138.9497  162.8201 C.ar    1  UNL1        0.0511
      6 C         141.0588  139.9195  161.8102 C.ar    1  UNL1        0.0226
      7 C         141.5189  139.8500  160.3843 C.ar    1  UNL1        0.0393
      8 N         141.1369  139.0191  164.2461 N.am    1  UNL1       -0.2804
      9 C         141.9081  139.8308  165.2443 C.2     1  UNL1        0.2495
     10 O         143.1394  140.5730  164.8166 O.2     1  UNL1       -0.2698
     11 H         140.3287  138.5320  164.5268 H       1  UNL1        0.1552
     12 C         141.4479  139.9002  166.6703 C.ar    1  UNL1        0.0536
     13 C         140.0140  140.2116  166.9814 C.ar    1  UNL1        0.0045
     14 C         139.5538  140.2810  168.4074 C.ar    1  UNL1        0.0001
     15 C         140.5276  140.0391  169.5223 C.ar    1  UNL1        0.0039
     16 C         141.9616  139.7277  169.2113 C.ar    1  UNL1        0.0716
     17 C         142.4217  139.6583  167.7853 C.ar    1  UNL1        0.0084
     18 C         142.9355  139.4857  170.3262 C.3     1  UNL1        0.4186
     19 F         143.9094  139.2439  171.4411 F       1  UNL1       -0.1659
     20 F         143.3112  140.9379  170.3131 F       1  UNL1       -0.1659
     21 F         142.5599  138.0336  170.3393 F       1  UNL1       -0.1659
     22 C         140.9806  140.8198  159.3744 C.1     1  UNL1       -0.0585
     23 C         140.4423  141.7896  158.3645 C.1     1  UNL1       -0.0386
     24 C         139.9040  142.7593  157.3547 C.ar    1  UNL1        0.1481
     25 N         140.5931  144.0001  156.8693 N.ar    1  UNL1       -0.1595
     26 N         139.6970  144.6662  155.8676 N.ar    1  UNL1       -0.2333
     27 C         138.4542  143.8370  155.7338 C.ar    1  UNL1        0.1659
     28 N         137.2226  144.0029  154.8939 N.ar    1  UNL1       -0.2050
     29 C         136.1189  142.9902  154.9730 C.ar    1  UNL1        0.2014
     30 N         136.2468  141.8117  155.8921 N.ar    1  UNL1       -0.2093
     31 C         137.4784  141.6459  156.7321 C.ar    1  UNL1        0.1322
     32 N         137.6063  140.4674  157.6512 N.pl3   1  UNL1       -0.3424
     33 C         138.5821  142.6585  156.6529 C.ar    1  UNL1        0.0938
     34 H         136.8819  139.8027  157.7031 H       1  UNL1        0.1437
     35 H         138.4147  140.3585  158.2025 H       1  UNL1        0.1437
     36 C         139.9920  145.9381  155.1292 C.3     1  UNL1        0.1305
     37 C         139.4373  147.2400  155.6266 C.3     1  UNL1        0.0418
     38 C         139.2440  148.4847  154.8121 C.3     1  UNL1        0.0207
     39 C         138.6657  149.5397  155.7079 C.3     1  UNL1        0.0722
     40 N         138.5016  148.9471  157.0760 N.3     1  UNL1       -0.2714
     41 C         137.9564  149.6520  158.2826 C.3     1  UNL1        0.0896
     42 C         138.9784  147.5258  157.0258 C.3     1  UNL1        0.0741
@<TRIPOS>BOND
     1     1     2    1
     2     2     3   ar
     3     3     4   ar
     4     4     5   ar
     5     5     8    1
     6     8     9   am
     7     9    10    2
     8     9    12    1
     9    12    13   ar
    10    13    14   ar
    11    14    15   ar
    12    15    16   ar
    13    16    18    1
    14    18    19    1
    15    18    20    1
    16    18    21    1
    17    16    17   ar
    18     5     6   ar
    19     6     7   ar
    20     7    22    1
    21    22    23    3
    22    23    24    1
    23    24    25   ar
    24    25    26   ar
    25    26    36    1
    26    36    37    1
    27    37    38    1
    28    38    39    1
    29    39    40    1
    30    40    41    1
    31    40    42    1
    32    26    27   ar
    33    27    28   ar
    34    28    29   ar
    35    29    30   ar
    36    30    31   ar
    37    31    32    1
    38    31    33   ar
    39     7     2   ar
    40    33    24   ar
    41    17    12   ar
    42    42    37    1
    43    33    27   ar
    44     8    11    1
    45    32    34    1
    46    32    35    1
@<TRIPOS>MOLECULE
*****
 42 46 0 0 0
SMALL
GASTEIGER

@<TRIPOS>ATOM
      1 C         141.7484  142.7712  158.5928 C.3     1  UNL1        0.0317
      2 C         142.1651  141.3946  158.1669 C.ar    1  UNL1       -0.0141
      3 C         142.6427  141.1555  156.7652 C.ar    1  UNL1       -0.0024
      4 C         143.0594  139.7790  156.3394 C.ar    1  UNL1        0.0144
      5 C         142.9984  138.6413  157.3152 C.ar    1  UNL1        0.0511
      6 C         142.5208  138.8804  158.7169 C.ar    1  UNL1        0.0226
      7 C         142.1041  140.2570  159.1427 C.ar    1  UNL1        0.0393
      8 N         143.4151  137.2648  156.8893 N.am    1  UNL1       -0.2804
      9 C         142.3834  136.2770  156.4311 C.2     1  UNL1        0.2495
     10 O         140.9350  136.6659  156.3986 O.2     1  UNL1       -0.2698
     11 H         144.3657  137.0095  156.9106 H       1  UNL1        0.1552
     12 C         142.8001  134.9004  156.0052 C.ar    1  UNL1        0.0536
     13 C         142.3822  134.3711  154.6654 C.ar    1  UNL1        0.0045
     14 C         142.7988  132.9945  154.2396 C.ar    1  UNL1        0.0001
     15 C         143.6334  132.1472  155.1536 C.ar    1  UNL1        0.0039
     16 C         144.0514  132.6764  156.4934 C.ar    1  UNL1        0.0716
     17 C         143.6347  134.0531  156.9192 C.ar    1  UNL1        0.0084
     18 C         144.8860  131.8292  157.4075 C.3     1  UNL1        0.4186
     19 F         145.7206  130.9818  158.3215 F       1  UNL1       -0.1659
     20 F         144.7882  130.6879  156.4389 F       1  UNL1       -0.1659
     21 F         144.9838  132.9703  158.3761 F       1  UNL1       -0.1659
     22 C         141.6265  140.4961  160.5444 C.1     1  UNL1       -0.0585
     23 C         141.1489  140.7351  161.9461 C.1     1  UNL1       -0.0386
     24 C         140.6713  140.9742  163.3478 C.ar    1  UNL1        0.1481
     25 N         140.9030  142.2146  164.1587 N.ar    1  UNL1       -0.1595
     26 N         140.2530  142.0218  165.4967 N.ar    1  UNL1       -0.2333
     27 C         139.6195  140.6622  165.5128 C.ar    1  UNL1        0.1659
     28 N         138.8407  139.9301  166.5652 N.ar    1  UNL1       -0.2050
     29 C         138.3205  138.5506  166.2894 C.ar    1  UNL1        0.2014
     30 N         138.5790  137.9031  164.9613 N.ar    1  UNL1       -0.2093
     31 C         139.3578  138.6352  163.9089 C.ar    1  UNL1        0.1322
     32 N         139.6163  137.9877  162.5808 N.pl3   1  UNL1       -0.3424
     33 C         139.8781  140.0147  164.1847 C.ar    1  UNL1        0.0938
     34 H         139.2748  137.0822  162.3998 H       1  UNL1        0.1437
     35 H         140.1275  138.4682  161.8901 H       1  UNL1        0.1437
     36 C         140.2389  143.0143  166.6213 C.3     1  UNL1        0.1305
     37 C         140.7698  142.6274  167.9699 C.3     1  UNL1        0.0418
     38 C         140.4403  143.2953  169.2720 C.3     1  UNL1        0.0207
     39 C         141.1902  142.5853  170.3599 C.3     1  UNL1        0.0722
     40 N         141.9832  141.4787  169.7301 N.3     1  UNL1       -0.2714
     41 C         142.8787  140.5152  170.4509 C.3     1  UNL1        0.0896
     42 C         141.7233  141.5047  168.2531 C.3     1  UNL1        0.0741
@<TRIPOS>BOND
     1     1     2    1
     2     2     3   ar
     3     3     4   ar
     4     4     5   ar
     5     5     8    1
     6     8     9   am
     7     9    10    2
     8     9    12    1
     9    12    13   ar
    10    13    14   ar
    11    14    15   ar
    12    15    16   ar
    13    16    18    1
    14    18    19    1
    15    18    20    1
    16    18    21    1
    17    16    17   ar
    18     5     6   ar
    19     6     7   ar
    20     7    22    1
    21    22    23    3
    22    23    24    1
    23    24    25   ar
    24    25    26   ar
    25    26    36    1
    26    36    37    1
    27    37    38    1
    28    38    39    1
    29    39    40    1
    30    40    41    1
    31    40    42    1
    32    26    27   ar
    33    27    28   ar
    34    28    29   ar
    35    29    30   ar
    36    30    31   ar
    37    31    32    1
    38    31    33   ar
    39     7     2   ar
    40    33    24   ar
    41    17    12   ar
    42    42    37    1
    43    33    27   ar
    44     8    11    1
    45    32    34    1
    46    32    35    1
@<TRIPOS>MOLECULE
*****
 42 46 0 0 0
SMALL
GASTEIGER

@<TRIPOS>ATOM
      1 C         137.3361  141.1088  157.3200 C.3     1  UNL1        0.0317
      2 C         137.6955  142.3989  156.6443 C.ar    1  UNL1       -0.0141
      3 C         136.9722  142.8204  155.3996 C.ar    1  UNL1       -0.0024
      4 C         137.3315  144.1104  154.7239 C.ar    1  UNL1        0.0144
      5 C         138.4141  144.9791  155.2928 C.ar    1  UNL1        0.0511
      6 C         139.1373  144.5575  156.5375 C.ar    1  UNL1        0.0226
      7 C         138.7780  143.2674  157.2132 C.ar    1  UNL1        0.0393
      8 N         138.7734  146.2691  154.6171 N.am    1  UNL1       -0.2804
      9 C         138.9972  147.5069  155.4344 C.2     1  UNL1        0.2495
     10 O         138.8616  147.4545  156.9273 O.2     1  UNL1       -0.2698
     11 H         138.8624  146.3035  153.6373 H       1  UNL1        0.1552
     12 C         139.3565  148.7970  154.7587 C.ar    1  UNL1        0.0536
     13 C         140.2939  148.7946  153.5877 C.ar    1  UNL1        0.0045
     14 C         140.6532  150.0847  152.9120 C.ar    1  UNL1        0.0001
     15 C         140.0751  151.3772  153.4073 C.ar    1  UNL1        0.0039
     16 C         139.1377  151.3796  154.5783 C.ar    1  UNL1        0.0716
     17 C         138.7784  150.0894  155.2540 C.ar    1  UNL1        0.0084
     18 C         138.5596  152.6720  155.0736 C.3     1  UNL1        0.4186
     19 F         137.9815  153.9644  155.5691 F       1  UNL1       -0.1659
     20 F         138.8351  152.2532  156.4875 F       1  UNL1       -0.1659
     21 F         138.2842  153.0908  153.6599 F       1  UNL1       -0.1659
     22 C         139.5012  142.8459  158.4579 C.1     1  UNL1       -0.0585
     23 C         140.2244  142.4242  159.7026 C.1     1  UNL1       -0.0386
     24 C         140.9476  142.0027  160.9473 C.ar    1  UNL1        0.1481
     25 N         140.7922  140.6895  161.6553 N.ar    1  UNL1       -0.1595
     26 N         141.7018  140.6955  162.8481 N.ar    1  UNL1       -0.2333
     27 C         142.4193  142.0125  162.8772 C.ar    1  UNL1        0.1659
     28 N         143.4368  142.5804  163.8217 N.ar    1  UNL1       -0.2050
     29 C         143.9883  143.9562  163.5913 C.ar    1  UNL1        0.2014
     30 N         143.5222  144.7640  162.4166 N.ar    1  UNL1       -0.2093
     31 C         142.5046  144.1961  161.4721 C.ar    1  UNL1        0.1322
     32 N         142.0386  145.0040  160.2973 N.pl3   1  UNL1       -0.3424
     33 C         141.9532  142.8203  161.7024 C.ar    1  UNL1        0.0938
     34 H         142.4005  145.9070  160.1462 H       1  UNL1        0.1437
     35 H         141.3707  144.6312  159.6774 H       1  UNL1        0.1437
     36 C         141.8651  139.5804  163.8380 C.3     1  UNL1        0.1305
     37 C         140.6562  138.9473  164.4608 C.3     1  UNL1        0.0418
     38 C         139.9999  137.6740  164.0158 C.3     1  UNL1        0.0207
     39 C         138.8295  137.4161  164.9179 C.3     1  UNL1        0.0722
     40 N         138.7626  138.5299  165.9203 N.3     1  UNL1       -0.2714
     41 C         137.7453  138.6724  167.0133 C.3     1  UNL1        0.0896
     42 C         139.8915  139.4762  165.6378 C.3     1  UNL1        0.0741
@<TRIPOS>BOND
     1     1     2    1
     2     2     3   ar
     3     3     4   ar
     4     4     5   ar
     5     5     8    1
     6     8     9   am
     7     9    10    2
     8     9    12    1
     9    12    13   ar
    10    13    14   ar
    11    14    15   ar
    12    15    16   ar
    13    16    18    1
    14    18    19    1
    15    18    20    1
    16    18    21    1
    17    16    17   ar
    18     5     6   ar
    19     6     7   ar
    20     7    22    1
    21    22    23    3
    22    23    24    1
    23    24    25   ar
    24    25    26   ar
    25    26    36    1
    26    36    37    1
    27    37    38    1
    28    38    39    1
    29    39    40    1
    30    40    41    1
    31    40    42    1
    32    26    27   ar
    33    27    28   ar
    34    28    29   ar
    35    29    30   ar
    36    30    31   ar
    37    31    32    1
    38    31    33   ar
    39     7     2   ar
    40    33    24   ar
    41    17    12   ar
    42    42    37    1
    43    33    27   ar
    44     8    11    1
    45    32    34    1
    46    32    35    1
@<TRIPOS>MOLECULE
*****
 42 46 0 0 0
SMALL
GASTEIGER

@<TRIPOS>ATOM
      1 C         140.8249  141.7719  155.7144 C.3     1  UNL1        0.0317
      2 C         140.8794  140.2729  155.7301 C.ar    1  UNL1       -0.0141
      3 C         141.2668  139.5235  154.4898 C.ar    1  UNL1       -0.0024
      4 C         141.3213  138.0247  154.5054 C.ar    1  UNL1        0.0144
      5 C         140.9885  137.2750  155.7613 C.ar    1  UNL1        0.0511
      6 C         140.6011  138.0245  157.0016 C.ar    1  UNL1        0.0226
      7 C         140.5466  139.5234  156.9860 C.ar    1  UNL1        0.0393
      8 N         141.0430  135.7761  155.7770 N.am    1  UNL1       -0.2804
      9 C         142.3333  135.0757  156.0843 C.2     1  UNL1        0.2495
     10 O         143.5692  135.8743  156.3759 O.2     1  UNL1       -0.2698
     11 H         140.2319  135.2520  155.5856 H       1  UNL1        0.1552
     12 C         142.3878  133.5768  156.0999 C.ar    1  UNL1        0.0536
     13 C         141.4414  132.7829  155.2491 C.ar    1  UNL1        0.0045
     14 C         141.4959  131.2840  155.2648 C.ar    1  UNL1        0.0001
     15 C         142.4969  130.5789  156.1313 C.ar    1  UNL1        0.0039
     16 C         143.4434  131.3727  156.9822 C.ar    1  UNL1        0.0716
     17 C         143.3888  132.8717  156.9665 C.ar    1  UNL1        0.0084
     18 C         144.4444  130.6678  157.8487 C.3     1  UNL1        0.4186
     19 F         145.4455  129.9629  158.7152 F       1  UNL1       -0.1659
     20 F         145.5177  131.5974  157.3651 F       1  UNL1       -0.1659
     21 F         143.3712  129.7381  158.3323 F       1  UNL1       -0.1659
     22 C         140.1593  140.2728  158.2263 C.1     1  UNL1       -0.0585
     23 C         139.7720  141.0222  159.4667 C.1     1  UNL1       -0.0386
     24 C         139.3846  141.7716  160.7070 C.ar    1  UNL1        0.1481
     25 N         138.7965  141.1740  161.9507 N.ar    1  UNL1       -0.1595
     26 N         138.5658  142.2833  162.9336 N.ar    1  UNL1       -0.2333
     27 C         139.0114  143.5665  162.2974 C.ar    1  UNL1        0.1659
     28 N         139.0216  144.9821  162.7934 N.ar    1  UNL1       -0.2050
     29 C         139.5380  146.0814  161.9132 C.ar    1  UNL1        0.2014
     30 N         140.0440  145.7652  160.5370 N.ar    1  UNL1       -0.2093
     31 C         140.0338  144.3497  160.0410 C.ar    1  UNL1        0.1322
     32 N         140.5398  144.0334  158.6648 N.pl3   1  UNL1       -0.3424
     33 C         139.5174  143.2503  160.9212 C.ar    1  UNL1        0.0938
     34 H         140.8787  144.7550  158.0871 H       1  UNL1        0.1437
     35 H         140.5331  143.1043  158.3393 H       1  UNL1        0.1437
     36 C         137.9906  142.1354  164.3110 C.3     1  UNL1        0.1305
     37 C         138.6134  141.1798  165.2853 C.3     1  UNL1        0.0418
     38 C         138.1665  139.7722  165.5480 C.3     1  UNL1        0.0207
     39 C         139.0694  139.1866  166.5930 C.3     1  UNL1        0.0722
     40 N         140.0742  140.2323  166.9760 N.3     1  UNL1       -0.2714
     41 C         141.1688  140.0739  167.9894 C.3     1  UNL1        0.0896
     42 C         139.7925  141.4641  166.1679 C.3     1  UNL1        0.0741
@<TRIPOS>BOND
     1     1     2    1
     2     2     3   ar
     3     3     4   ar
     4     4     5   ar
     5     5     8    1
     6     8     9   am
     7     9    10    2
     8     9    12    1
     9    12    13   ar
    10    13    14   ar
    11    14    15   ar
    12    15    16   ar
    13    16    18    1
    14    18    19    1
    15    18    20    1
    16    18    21    1
    17    16    17   ar
    18     5     6   ar
    19     6     7   ar
    20     7    22    1
    21    22    23    3
    22    23    24    1
    23    24    25   ar
    24    25    26   ar
    25    26    36    1
    26    36    37    1
    27    37    38    1
    28    38    39    1
    29    39    40    1
    30    40    41    1
    31    40    42    1
    32    26    27   ar
    33    27    28   ar
    34    28    29   ar
    35    29    30   ar
    36    30    31   ar
    37    31    32    1
    38    31    33   ar
    39     7     2   ar
    40    33    24   ar
    41    17    12   ar
    42    42    37    1
    43    33    27   ar
    44     8    11    1
    45    32    34    1
    46    32    35    1
