@<TRIPOS>MOLECULE
*****
 27 30 0 0 0
SMALL
GASTEIGER

@<TRIPOS>ATOM
      1 C         141.1939  139.1790  163.3119 C.ar    1  UNL1        0.1512
      2 C         141.1636  137.7922  162.7411 C.ar    1  UNL1        0.1338
      3 N         141.6596  137.5438  161.3474 N.ar    1  UNL1       -0.2291
      4 C         142.1858  138.6822  160.5246 C.ar    1  UNL1        0.1669
      5 C         142.2160  140.0691  161.0954 C.ar    1  UNL1        0.1131
      6 N         141.7200  140.3175  162.4890 N.ar    1  UNL1       -0.2268
      7 C         139.2101  140.1728  168.8866 C.2     1  UNL1        0.2252
      8 O         137.9495  139.5139  169.3627 O.2     1  UNL1       -0.2749
      9 N         139.7061  139.9244  167.4929 N.am    1  UNL1       -0.2777
     10 C         140.9667  140.5833  167.0169 C.3     1  UNL1        0.1148
     11 C         141.4626  140.3348  165.6232 C.3     1  UNL1        0.1137
     12 N         140.6979  139.4275  164.7056 N.pl3   1  UNL1       -0.2886
     13 C         139.4373  138.7686  165.1817 C.3     1  UNL1        0.1120
     14 C         138.9414  139.0170  166.5753 C.3     1  UNL1        0.0952
     15 C         137.6807  138.3582  167.0515 C.3     1  UNL1        0.0233
     16 C         140.4625  143.9340  169.9254 C.3     1  UNL1        0.0005
     17 C         140.4332  142.4568  170.1844 C.3     1  UNL1        0.0091
     18 C         140.8409  141.2750  171.0133 C.3     1  UNL1        0.0095
     19 C         139.9748  141.0801  169.8042 C.3     1  UNL1        0.0767
     20 C         142.7422  141.2075  160.2725 C.ar    1  UNL1        0.0595
     21 C         144.1782  141.6273  160.1643 C.ar    1  UNL1        0.1232
     22 N         144.2482  142.8053  159.2383 N.ar    1  UNL1       -0.1675
     23 N         142.8556  143.1135  158.7742 N.ar    1  UNL1       -0.2473
     24 C         142.4626  144.2157  157.8356 C.3     1  UNL1        0.1538
     25 C         141.9248  142.1260  159.4134 C.ar    1  UNL1        0.0983
     26 C         142.6818  138.4339  159.1309 C.1     1  UNL1        0.1213
     27 N         143.1777  138.1855  157.7373 N.1     1  UNL1       -0.1892
@<TRIPOS>BOND
     1    17    16    1
     2    17    18    1
     3    18    19    1
     4    19     7    1
     5     7     8    2
     6     7     9   am
     7     9    10    1
     8    10    11    1
     9    11    12    1
    10    12     1    1
    11     1     2   ar
    12     2     3   ar
    13     3     4   ar
    14     4    26    1
    15    26    27    3
    16     4     5   ar
    17     5    20    1
    18    20    21   ar
    19    21    22   ar
    20    22    23   ar
    21    23    24    1
    22    23    25   ar
    23     5     6   ar
    24    12    13    1
    25    13    14    1
    26    14    15    1
    27    19    17    1
    28    14     9    1
    29     6     1   ar
    30    25    20   ar
@<TRIPOS>MOLECULE
*****
 27 30 0 0 0
SMALL
GASTEIGER

@<TRIPOS>ATOM
      1 C         139.1879  139.9422  162.2063 C.ar    1  UNL1        0.1512
      2 C         137.8386  139.9905  161.5528 C.ar    1  UNL1        0.1338
      3 N         137.7220  139.8633  160.0627 N.ar    1  UNL1       -0.2291
      4 C         138.9547  139.6877  159.2262 C.ar    1  UNL1        0.1669
      5 C         140.3040  139.6394  159.8798 C.ar    1  UNL1        0.1131
      6 N         140.4206  139.7667  161.3699 N.ar    1  UNL1       -0.2268
      7 C         139.6544  140.4513  168.1665 C.2     1  UNL1        0.2252
      8 O         138.7913  139.6115  169.0608 O.2     1  UNL1       -0.2749
      9 N         139.5377  140.3240  166.6764 N.am    1  UNL1       -0.2777
     10 C         140.4008  141.1638  165.7821 C.3     1  UNL1        0.1148
     11 C         140.2842  141.0366  164.2921 C.3     1  UNL1        0.1137
     12 N         139.3045  140.0695  163.6964 N.pl3   1  UNL1       -0.2886
     13 C         138.4414  139.2297  164.5907 C.3     1  UNL1        0.1120
     14 C         138.5580  139.3570  166.0807 C.3     1  UNL1        0.0952
     15 C         137.6949  138.5171  166.9750 C.3     1  UNL1        0.0233
     16 C         140.4503  144.0657  169.9262 C.3     1  UNL1        0.0005
     17 C         140.9254  142.7413  169.4063 C.3     1  UNL1        0.0091
     18 C         142.0396  141.7704  169.1499 C.3     1  UNL1        0.0095
     19 C         140.6341  141.4184  168.7622 C.3     1  UNL1        0.0767
     20 C         141.5367  139.4638  159.0434 C.ar    1  UNL1        0.0595
     21 C         142.1610  138.1559  158.6569 C.ar    1  UNL1        0.1232
     22 N         143.3717  138.4491  157.8212 N.ar    1  UNL1       -0.1675
     23 N         143.4956  139.9383  157.6912 N.ar    1  UNL1       -0.2473
     24 C         144.5656  140.6716  156.9381 C.3     1  UNL1        0.1538
     25 C         142.3615  140.5654  158.4465 C.ar    1  UNL1        0.0983
     26 C         138.8382  139.5604  157.7362 C.1     1  UNL1        0.1213
     27 N         138.7216  139.4332  156.2462 N.1     1  UNL1       -0.1892
@<TRIPOS>BOND
     1    17    16    1
     2    17    18    1
     3    18    19    1
     4    19     7    1
     5     7     8    2
     6     7     9   am
     7     9    10    1
     8    10    11    1
     9    11    12    1
    10    12     1    1
    11     1     2   ar
    12     2     3   ar
    13     3     4   ar
    14     4    26    1
    15    26    27    3
    16     4     5   ar
    17     5    20    1
    18    20    21   ar
    19    21    22   ar
    20    22    23   ar
    21    23    24    1
    22    23    25   ar
    23     5     6   ar
    24    12    13    1
    25    13    14    1
    26    14    15    1
    27    19    17    1
    28    14     9    1
    29     6     1   ar
    30    25    20   ar
@<TRIPOS>MOLECULE
*****
 27 30 0 0 0
SMALL
GASTEIGER

@<TRIPOS>ATOM
      1 C         140.2504  139.1440  163.2813 C.ar    1  UNL1        0.1512
      2 C         141.0761  137.9586  162.8775 C.ar    1  UNL1        0.1338
      3 N         141.3802  137.7147  161.4290 N.ar    1  UNL1       -0.2291
      4 C         140.8586  138.6562  160.3843 C.ar    1  UNL1        0.1669
      5 C         140.0328  139.8416  160.7881 C.ar    1  UNL1        0.1131
      6 N         139.7287  140.0855  162.2365 N.ar    1  UNL1       -0.2268
      7 C         139.0340  140.1195  169.0751 C.2     1  UNL1        0.2252
      8 O         137.8675  139.4337  169.7224 O.2     1  UNL1       -0.2749
      9 N         139.3381  139.8756  167.6266 N.am    1  UNL1       -0.2777
     10 C         140.5046  140.5615  166.9794 C.3     1  UNL1        0.1148
     11 C         140.8086  140.3176  165.5310 C.3     1  UNL1        0.1137
     12 N         139.9462  139.3878  164.7298 N.pl3   1  UNL1       -0.2886
     13 C         138.7798  138.7020  165.3770 C.3     1  UNL1        0.1120
     14 C         138.4757  138.9459  166.8254 C.3     1  UNL1        0.0952
     15 C         137.3092  138.2601  167.4728 C.3     1  UNL1        0.0233
     16 C         140.4234  143.8984  169.8390 C.3     1  UNL1        0.0005
     17 C         140.4049  142.4324  170.1559 C.3     1  UNL1        0.0091
     18 C         140.8815  141.2764  170.9844 C.3     1  UNL1        0.0095
     19 C         139.8964  141.0493  169.8763 C.3     1  UNL1        0.0767
     20 C         139.5111  140.7832  159.7434 C.ar    1  UNL1        0.0595
     21 C         138.2162  140.6445  158.9991 C.ar    1  UNL1        0.1232
     22 N         138.0976  141.8043  158.0552 N.ar    1  UNL1       -0.1675
     23 N         139.3191  142.6598  158.2162 N.ar    1  UNL1       -0.2473
     24 C         139.6152  143.9243  157.4657 C.3     1  UNL1        0.1538
     25 C         140.1927  142.0287  159.2596 C.ar    1  UNL1        0.0983
     26 C         141.1626  138.4124  158.9359 C.1     1  UNL1        0.1213
     27 N         141.4667  138.1686  157.4874 N.1     1  UNL1       -0.1892
@<TRIPOS>BOND
     1    17    16    1
     2    17    18    1
     3    18    19    1
     4    19     7    1
     5     7     8    2
     6     7     9   am
     7     9    10    1
     8    10    11    1
     9    11    12    1
    10    12     1    1
    11     1     2   ar
    12     2     3   ar
    13     3     4   ar
    14     4    26    1
    15    26    27    3
    16     4     5   ar
    17     5    20    1
    18    20    21   ar
    19    21    22   ar
    20    22    23   ar
    21    23    24    1
    22    23    25   ar
    23     5     6   ar
    24    12    13    1
    25    13    14    1
    26    14    15    1
    27    19    17    1
    28    14     9    1
    29     6     1   ar
    30    25    20   ar
@<TRIPOS>MOLECULE
*****
 27 30 0 0 0
SMALL
GASTEIGER

@<TRIPOS>ATOM
      1 C         141.7075  139.9152  163.0371 C.ar    1  UNL1        0.1512
      2 C         143.1965  139.9007  162.8566 C.ar    1  UNL1        0.1338
      3 N         143.7843  139.8356  161.4781 N.ar    1  UNL1       -0.2291
      4 C         142.8830  139.7851  160.2801 C.ar    1  UNL1        0.1669
      5 C         141.3939  139.7997  160.4606 C.ar    1  UNL1        0.1131
      6 N         140.8062  139.8647  161.8391 N.ar    1  UNL1       -0.2268
      7 C         139.3564  140.1755  168.5512 C.2     1  UNL1        0.2252
      8 O         138.1413  139.3628  168.8876 O.2     1  UNL1       -0.2749
      9 N         139.9442  140.1105  167.1726 N.am    1  UNL1       -0.2777
     10 C         141.1592  140.9231  166.8363 C.3     1  UNL1        0.1148
     11 C         141.7470  140.8581  165.4578 C.3     1  UNL1        0.1137
     12 N         141.1197  139.9803  164.4157 N.pl3   1  UNL1       -0.2886
     13 C         139.9046  139.1676  164.7520 C.3     1  UNL1        0.1120
     14 C         139.3169  139.2327  166.1305 C.3     1  UNL1        0.0952
     15 C         138.1018  138.4200  166.4669 C.3     1  UNL1        0.0233
     16 C         140.4086  143.9048  169.8850 C.3     1  UNL1        0.0005
     17 C         140.3688  142.4183  170.0815 C.3     1  UNL1        0.0091
     18 C         140.6850  141.2085  170.9101 C.3     1  UNL1        0.0095
     19 C         139.9837  141.0533  169.5933 C.3     1  UNL1        0.0767
     20 C         140.4927  139.7492  159.2627 C.ar    1  UNL1        0.0595
     21 C         139.9403  138.5081  158.6265 C.ar    1  UNL1        0.1232
     22 N         139.0918  138.9228  157.4612 N.ar    1  UNL1       -0.1675
     23 N         139.1197  140.4202  157.3770 N.ar    1  UNL1       -0.2473
     24 C         138.4070  141.2595  156.3584 C.3     1  UNL1        0.1538
     25 C         139.9855  140.9309  158.4904 C.ar    1  UNL1        0.0983
     26 C         143.4708  139.7201  158.9016 C.1     1  UNL1        0.1213
     27 N         144.0585  139.6550  157.5231 N.1     1  UNL1       -0.1892
@<TRIPOS>BOND
     1    17    16    1
     2    17    18    1
     3    18    19    1
     4    19     7    1
     5     7     8    2
     6     7     9   am
     7     9    10    1
     8    10    11    1
     9    11    12    1
    10    12     1    1
    11     1     2   ar
    12     2     3   ar
    13     3     4   ar
    14     4    26    1
    15    26    27    3
    16     4     5   ar
    17     5    20    1
    18    20    21   ar
    19    21    22   ar
    20    22    23   ar
    21    23    24    1
    22    23    25   ar
    23     5     6   ar
    24    12    13    1
    25    13    14    1
    26    14    15    1
    27    19    17    1
    28    14     9    1
    29     6     1   ar
    30    25    20   ar
@<TRIPOS>MOLECULE
*****
 27 30 0 0 0
SMALL
GASTEIGER

@<TRIPOS>ATOM
      1 C         138.7583  140.6595  162.0571 C.ar    1  UNL1        0.1512
      2 C         137.7274  139.7417  161.4699 C.ar    1  UNL1        0.1338
      3 N         137.4770  139.7435  159.9909 N.ar    1  UNL1       -0.2291
      4 C         138.2574  140.6631  159.0992 C.ar    1  UNL1        0.1669
      5 C         139.2883  141.5809  159.6864 C.ar    1  UNL1        0.1131
      6 N         139.5388  141.5791  161.1654 N.ar    1  UNL1       -0.2268
      7 C         139.7601  140.6524  167.9729 C.2     1  UNL1        0.2252
      8 O         139.0798  139.6415  168.8475 O.2     1  UNL1       -0.2749
      9 N         139.5097  140.6542  166.4939 N.am    1  UNL1       -0.2777
     10 C         140.1900  141.6652  165.6192 C.3     1  UNL1        0.1148
     11 C         139.9396  141.6669  164.1403 C.3     1  UNL1        0.1137
     12 N         139.0087  140.6577  163.5361 N.pl3   1  UNL1       -0.2886
     13 C         138.3284  139.6468  164.4107 C.3     1  UNL1        0.1120
     14 C         138.5789  139.6450  165.8896 C.3     1  UNL1        0.0952
     15 C         137.8985  138.6341  166.7644 C.3     1  UNL1        0.0233
     16 C         140.3577  144.1822  169.9672 C.3     1  UNL1        0.0005
     17 C         140.9096  142.9536  169.3071 C.3     1  UNL1        0.0091
     18 C         142.0844  142.1176  168.8937 C.3     1  UNL1        0.0095
     19 C         140.6909  141.6616  168.5771 C.3     1  UNL1        0.0767
     20 C         140.0688  142.5006  158.7947 C.ar    1  UNL1        0.0595
     21 C         141.3550  142.1706  158.0970 C.ar    1  UNL1        0.1232
     22 N         141.7812  143.3778  157.3152 N.ar    1  UNL1       -0.1675
     23 N         140.7585  144.4538  157.5298 N.ar    1  UNL1       -0.2473
     24 C         140.7887  145.8303  156.9345 C.3     1  UNL1        0.1538
     25 C         139.7001  143.9117  158.4442 C.ar    1  UNL1        0.0983
     26 C         138.0070  140.6649  157.6202 C.1     1  UNL1        0.1213
     27 N         137.7566  140.6667  156.1413 N.1     1  UNL1       -0.1892
@<TRIPOS>BOND
     1    17    16    1
     2    17    18    1
     3    18    19    1
     4    19     7    1
     5     7     8    2
     6     7     9   am
     7     9    10    1
     8    10    11    1
     9    11    12    1
    10    12     1    1
    11     1     2   ar
    12     2     3   ar
    13     3     4   ar
    14     4    26    1
    15    26    27    3
    16     4     5   ar
    17     5    20    1
    18    20    21   ar
    19    21    22   ar
    20    22    23   ar
    21    23    24    1
    22    23    25   ar
    23     5     6   ar
    24    12    13    1
    25    13    14    1
    26    14    15    1
    27    19    17    1
    28    14     9    1
    29     6     1   ar
    30    25    20   ar
@<TRIPOS>MOLECULE
*****
 27 30 0 0 0
SMALL
GASTEIGER

@<TRIPOS>ATOM
      1 C         140.1215  143.3768  162.5763 C.ar    1  UNL1        0.1512
      2 C         139.3999  144.6655  162.3151 C.ar    1  UNL1        0.1338
      3 N         139.5470  145.3522  160.9896 N.ar    1  UNL1       -0.2291
      4 C         140.4157  144.7500  159.9253 C.ar    1  UNL1        0.1669
      5 C         141.1374  143.4611  160.1866 C.ar    1  UNL1        0.1131
      6 N         140.9902  142.7746  161.5121 N.ar    1  UNL1       -0.2268
      7 C         139.5331  140.6304  167.8784 C.2     1  UNL1        0.2252
      8 O         138.8380  139.3039  167.9628 O.2     1  UNL1       -0.2749
      9 N         139.6802  141.3170  166.5528 N.am    1  UNL1       -0.2777
     10 C         140.3754  142.6435  166.4684 C.3     1  UNL1        0.1148
     11 C         140.5225  143.3300  165.1429 C.3     1  UNL1        0.1137
     12 N         139.9744  142.6901  163.9019 N.pl3   1  UNL1       -0.2886
     13 C         139.2792  141.3637  163.9863 C.3     1  UNL1        0.1120
     14 C         139.1321  140.6771  165.3118 C.3     1  UNL1        0.0952
     15 C         138.4369  139.3506  165.3963 C.3     1  UNL1        0.0233
     16 C         140.4747  143.9976  170.0159 C.3     1  UNL1        0.0005
     17 C         140.4259  142.5028  169.9018 C.3     1  UNL1        0.0091
     18 C         140.6859  141.1461  170.4864 C.3     1  UNL1        0.0095
     19 C         140.0812  141.2703  169.1194 C.3     1  UNL1        0.0767
     20 C         142.0061  142.8589  159.1224 C.ar    1  UNL1        0.0595
     21 C         141.5516  141.9357  158.0310 C.ar    1  UNL1        0.1232
     22 N         142.7465  141.5804  157.1968 N.ar    1  UNL1       -0.1675
     23 N         143.9396  142.2841  157.7725 N.ar    1  UNL1       -0.2473
     24 C         145.3437  142.2105  157.2499 C.3     1  UNL1        0.1538
     25 C         143.4820  143.0742  158.9626 C.ar    1  UNL1        0.0983
     26 C         140.5629  145.4365  158.5998 C.1     1  UNL1        0.1213
     27 N         140.7100  146.1231  157.2744 N.1     1  UNL1       -0.1892
@<TRIPOS>BOND
     1    17    16    1
     2    17    18    1
     3    18    19    1
     4    19     7    1
     5     7     8    2
     6     7     9   am
     7     9    10    1
     8    10    11    1
     9    11    12    1
    10    12     1    1
    11     1     2   ar
    12     2     3   ar
    13     3     4   ar
    14     4    26    1
    15    26    27    3
    16     4     5   ar
    17     5    20    1
    18    20    21   ar
    19    21    22   ar
    20    22    23   ar
    21    23    24    1
    22    23    25   ar
    23     5     6   ar
    24    12    13    1
    25    13    14    1
    26    14    15    1
    27    19    17    1
    28    14     9    1
    29     6     1   ar
    30    25    20   ar
@<TRIPOS>MOLECULE
*****
 27 30 0 0 0
SMALL
GASTEIGER

@<TRIPOS>ATOM
      1 C         140.5130  139.0822  162.4794 C.ar    1  UNL1        0.1512
      2 C         139.2650  138.3632  162.0604 C.ar    1  UNL1        0.1338
      3 N         138.9804  138.1408  160.6045 N.ar    1  UNL1       -0.2291
      4 C         139.9439  138.6374  159.5676 C.ar    1  UNL1        0.1669
      5 C         141.1919  139.3564  159.9867 C.ar    1  UNL1        0.1131
      6 N         141.4764  139.5788  161.4426 N.ar    1  UNL1       -0.2268
      7 C         141.6511  139.9717  168.3030 C.2     1  UNL1        0.2252
      8 O         142.8711  139.3647  168.9300 O.2     1  UNL1       -0.2749
      9 N         141.3665  139.7493  166.8471 N.am    1  UNL1       -0.2777
     10 C         140.1466  140.3563  166.2201 C.3     1  UNL1        0.1148
     11 C         139.8621  140.1339  164.7642 C.3     1  UNL1        0.1137
     12 N         140.7975  139.3045  163.9354 N.pl3   1  UNL1       -0.2886
     13 C         142.0175  138.6976  164.5624 C.3     1  UNL1        0.1120
     14 C         142.3020  138.9200  166.0182 C.3     1  UNL1        0.0952
     15 C         143.5220  138.3129  166.6453 C.3     1  UNL1        0.0233
     16 C         140.4197  143.6325  169.6727 C.3     1  UNL1        0.0005
     17 C         140.2649  142.1411  169.6332 C.3     1  UNL1        0.0091
     18 C         139.5461  140.8977  170.0661 C.3     1  UNL1        0.0095
     19 C         140.7156  140.8011  169.1318 C.3     1  UNL1        0.0767
     20 C         142.1554  139.8530  158.9498 C.ar    1  UNL1        0.0595
     21 C         143.3901  139.1418  158.4810 C.ar    1  UNL1        0.1232
     22 N         144.0512  139.9973  157.4411 N.ar    1  UNL1       -0.1675
     23 N         143.2250  141.2372  157.2673 N.ar    1  UNL1       -0.2473
     24 C         143.5189  142.3677  156.3263 C.3     1  UNL1        0.1538
     25 C         142.0534  141.1480  158.1997 C.ar    1  UNL1        0.0983
     26 C         139.6594  138.4151  158.1118 C.1     1  UNL1        0.1213
     27 N         139.3749  138.1927  156.6559 N.1     1  UNL1       -0.1892
@<TRIPOS>BOND
     1    17    16    1
     2    17    18    1
     3    18    19    1
     4    19     7    1
     5     7     8    2
     6     7     9   am
     7     9    10    1
     8    10    11    1
     9    11    12    1
    10    12     1    1
    11     1     2   ar
    12     2     3   ar
    13     3     4   ar
    14     4    26    1
    15    26    27    3
    16     4     5   ar
    17     5    20    1
    18    20    21   ar
    19    21    22   ar
    20    22    23   ar
    21    23    24    1
    22    23    25   ar
    23     5     6   ar
    24    12    13    1
    25    13    14    1
    26    14    15    1
    27    19    17    1
    28    14     9    1
    29     6     1   ar
    30    25    20   ar
@<TRIPOS>MOLECULE
*****
 27 30 0 0 0
SMALL
GASTEIGER

@<TRIPOS>ATOM
      1 C         139.1400  141.6320  162.2770 C.ar    1  UNL1        0.1512
      2 C         138.2435  142.7176  161.7597 C.ar    1  UNL1        0.1338
      3 N         138.0653  142.9024  160.2818 N.ar    1  UNL1       -0.2291
      4 C         138.7838  142.0017  159.3213 C.ar    1  UNL1        0.1669
      5 C         139.6803  140.9161  159.8387 C.ar    1  UNL1        0.1131
      6 N         139.8584  140.7312  161.3166 N.ar    1  UNL1       -0.2268
      7 C         139.8526  140.8926  168.1886 C.2     1  UNL1        0.2252
      8 O         139.2221  139.7197  168.8791 O.2     1  UNL1       -0.2749
      9 N         139.6745  141.0774  166.7106 N.am    1  UNL1       -0.2777
     10 C         140.3050  142.2503  166.0201 C.3     1  UNL1        0.1148
     11 C         140.1268  142.4351  164.5423 C.3     1  UNL1        0.1137
     12 N         139.3181  141.4471  163.7550 N.pl3   1  UNL1       -0.2886
     13 C         138.6876  140.2743  164.4455 C.3     1  UNL1        0.1120
     14 C         138.8658  140.0894  165.9233 C.3     1  UNL1        0.0952
     15 C         138.2352  138.9166  166.6139 C.3     1  UNL1        0.0233
     16 C         143.4890  142.2968  169.4528 C.3     1  UNL1        0.0005
     17 C         141.9923  142.3945  169.4386 C.3     1  UNL1        0.0091
     18 C         140.7309  143.0778  169.8768 C.3     1  UNL1        0.0095
     19 C         140.6613  141.8806  168.9759 C.3     1  UNL1        0.0767
     20 C         140.3988  140.0153  158.8782 C.ar    1  UNL1        0.0595
     21 C         141.8260  140.1546  158.4382 C.ar    1  UNL1        0.1232
     22 N         142.1254  139.0425  157.4771 N.ar    1  UNL1       -0.1675
     23 N         140.8833  138.2159  157.3232 N.ar    1  UNL1       -0.2473
     24 C         140.7343  137.0013  156.4558 C.3     1  UNL1        0.1538
     25 C         139.8162  138.8171  158.1892 C.ar    1  UNL1        0.0983
     26 C         138.6057  142.1865  157.8434 C.1     1  UNL1        0.1213
     27 N         138.4276  142.3714  156.3656 N.1     1  UNL1       -0.1892
@<TRIPOS>BOND
     1    17    16    1
     2    17    18    1
     3    18    19    1
     4    19     7    1
     5     7     8    2
     6     7     9   am
     7     9    10    1
     8    10    11    1
     9    11    12    1
    10    12     1    1
    11     1     2   ar
    12     2     3   ar
    13     3     4   ar
    14     4    26    1
    15    26    27    3
    16     4     5   ar
    17     5    20    1
    18    20    21   ar
    19    21    22   ar
    20    22    23   ar
    21    23    24    1
    22    23    25   ar
    23     5     6   ar
    24    12    13    1
    25    13    14    1
    26    14    15    1
    27    19    17    1
    28    14     9    1
    29     6     1   ar
    30    25    20   ar
@<TRIPOS>MOLECULE
*****
 27 30 0 0 0
SMALL
GASTEIGER

@<TRIPOS>ATOM
      1 C         142.4945  141.2212  163.6329 C.ar    1  UNL1        0.1512
      2 C         143.5633  140.2680  163.1867 C.ar    1  UNL1        0.1338
      3 N         144.0684  139.2140  164.1270 N.ar    1  UNL1       -0.2291
      4 C         143.5048  139.1134  165.5135 C.ar    1  UNL1        0.1669
      5 C         142.4360  140.0667  165.9596 C.ar    1  UNL1        0.1131
      6 N         141.9309  141.1206  165.0193 N.ar    1  UNL1       -0.2268
      7 C         140.4741  145.4369  159.8717 C.2     1  UNL1        0.2252
      8 O         139.4284  146.4105  160.3283 O.2     1  UNL1       -0.2749
      9 N         140.9792  144.3829  160.8120 N.am    1  UNL1       -0.2777
     10 C         142.0249  143.4093  160.3554 C.3     1  UNL1        0.1148
     11 C         142.5300  142.3554  161.2957 C.3     1  UNL1        0.1137
     12 N         141.9894  142.2752  162.6926 N.pl3   1  UNL1       -0.2886
     13 C         140.9437  143.2488  163.1492 C.3     1  UNL1        0.1120
     14 C         140.4387  144.3027  162.2089 C.3     1  UNL1        0.0952
     15 C         139.3929  145.2764  162.6655 C.3     1  UNL1        0.0233
     16 C         139.9945  144.8643  155.8423 C.3     1  UNL1        0.0005
     17 C         140.8391  145.3075  156.9999 C.3     1  UNL1        0.0091
     18 C         142.1265  145.8656  157.5302 C.3     1  UNL1        0.0095
     19 C         141.0147  145.5171  158.4748 C.3     1  UNL1        0.0767
     20 C         141.8723  139.9661  167.3460 C.ar    1  UNL1        0.0595
     21 C         142.6394  139.6151  168.5863 C.ar    1  UNL1        0.1232
     22 N         141.6838  139.6308  169.7424 N.ar    1  UNL1       -0.1675
     23 N         140.3261  139.9916  169.2166 N.ar    1  UNL1       -0.2473
     24 C         139.0721  140.1223  170.0292 C.3     1  UNL1        0.1538
     25 C         140.4426  140.1988  167.7356 C.ar    1  UNL1        0.0983
     26 C         144.0099  138.0595  166.4537 C.1     1  UNL1        0.1213
     27 N         144.5149  137.0056  167.3940 N.1     1  UNL1       -0.1892
@<TRIPOS>BOND
     1    17    16    1
     2    17    18    1
     3    18    19    1
     4    19     7    1
     5     7     8    2
     6     7     9   am
     7     9    10    1
     8    10    11    1
     9    11    12    1
    10    12     1    1
    11     1     2   ar
    12     2     3   ar
    13     3     4   ar
    14     4    26    1
    15    26    27    3
    16     4     5   ar
    17     5    20    1
    18    20    21   ar
    19    21    22   ar
    20    22    23   ar
    21    23    24    1
    22    23    25   ar
    23     5     6   ar
    24    12    13    1
    25    13    14    1
    26    14    15    1
    27    19    17    1
    28    14     9    1
    29     6     1   ar
    30    25    20   ar
