@<TRIPOS>MOLECULE
*****
 33 36 0 0 0
SMALL
GASTEIGER

@<TRIPOS>ATOM
      1 N         143.1469  141.4896  164.1751 N.3     1  UNL1       -0.2647
      2 C         142.6302  142.4349  163.1314 C.3     1  UNL1        0.1037
      3 C         142.0725  141.9005  161.8456 C.3     1  UNL1        0.1470
      4 C         141.5149  141.3661  160.5597 C.3     1  UNL1        0.1035
      5 N         141.4739  139.8864  160.3175 N.3     1  UNL1       -0.2673
      6 C         141.9907  138.9410  161.3612 C.3     1  UNL1        0.1035
      7 C         142.5484  139.4754  162.6470 C.3     1  UNL1        0.1470
      8 C         143.1060  140.0098  163.9329 C.3     1  UNL1        0.1037
      9 O         142.0316  140.4208  161.6034 O.3     1  UNL1       -0.3530
     10 C         143.7046  142.0239  165.4610 C.3     1  UNL1        0.0993
     11 C         140.9773  142.7543  168.9650 C.ar    1  UNL1        0.0684
     12 C         140.4132  142.6872  167.5768 C.ar    1  UNL1        0.0100
     13 C         141.3223  142.4437  166.4087 C.ar    1  UNL1       -0.0022
     14 C         142.7955  142.2674  166.6290 C.ar    1  UNL1       -0.0061
     15 C         143.3596  142.3345  168.0173 C.ar    1  UNL1       -0.0022
     16 C         142.4505  142.5780  169.1853 C.ar    1  UNL1        0.0100
     17 N         139.1590  143.2412  171.3010 N.1     1  UNL1       -0.1908
     18 C         140.0682  142.9977  170.1330 C.1     1  UNL1        0.1004
     19 C         140.9163  139.3520  159.0317 C.3     1  UNL1        0.0913
     20 C         139.6068  138.6204  159.0287 C.3     1  UNL1        0.1087
     21 N         138.4345  139.1779  159.7803 N.3     1  UNL1       -0.1780
     22 H         137.6231  138.6186  159.5172 H       1  UNL1        0.1488
     23 S         138.4591  139.2267  161.2792 S.O2    1  UNL1        0.0603
     24 O         138.8352  137.7752  161.3203 O.2     1  UNL1       -0.1530
     25 O         138.0830  140.6782  161.2382 O.2     1  UNL1       -0.1530
     26 C         138.4838  139.2756  162.7783 C.ar    1  UNL1        0.1220
     27 C         138.8094  138.0398  163.5637 C.ar    1  UNL1        0.0206
     28 C         138.8340  138.0886  165.0627 C.ar    1  UNL1        0.0116
     29 C         138.5331  139.3732  165.7762 C.ar    1  UNL1        0.0685
     30 C         138.2075  140.6090  164.9908 C.ar    1  UNL1        0.0116
     31 C         138.1828  140.5601  163.4919 C.ar    1  UNL1        0.0206
     32 C         138.5577  139.4221  167.2753 C.1     1  UNL1        0.1004
     33 N         138.5824  139.4709  168.7743 N.1     1  UNL1       -0.1908
@<TRIPOS>BOND
     1    17    18    3
     2    18    11    1
     3    11    12   ar
     4    12    13   ar
     5    13    14   ar
     6    14    10    1
     7    10     1    1
     8     1     2    1
     9     2     3    1
    10     3     4    1
    11     4     5    1
    12     5    19    1
    13    19    20    1
    14    20    21    1
    15    21    23    1
    16    23    24    2
    17    23    25    2
    18    23    26    1
    19    26    27   ar
    20    27    28   ar
    21    28    29   ar
    22    29    32    1
    23    32    33    3
    24    29    30   ar
    25    30    31   ar
    26     5     6    1
    27     6     7    1
    28     7     8    1
    29     7     9    1
    30    14    15   ar
    31    15    16   ar
    32    16    11   ar
    33     8     1    1
    34     9     3    1
    35    31    26   ar
    36    21    22    1
@<TRIPOS>MOLECULE
*****
 33 36 0 0 0
SMALL
GASTEIGER

@<TRIPOS>ATOM
      1 N         143.0950  142.0893  165.2551 N.3     1  UNL1       -0.2647
      2 C         144.3218  141.3599  164.7939 C.3     1  UNL1        0.1037
      3 C         144.4716  140.9829  163.3498 C.3     1  UNL1        0.1470
      4 C         144.6215  140.6059  161.9056 C.3     1  UNL1        0.1035
      5 N         143.5445  140.9584  160.9228 N.3     1  UNL1       -0.2673
      6 C         142.3177  141.6879  161.3842 C.3     1  UNL1        0.1035
      7 C         142.1679  142.0648  162.8283 C.3     1  UNL1        0.1470
      8 C         142.0180  142.4418  164.2723 C.3     1  UNL1        0.1037
      9 O         143.3947  141.3354  162.3670 O.3     1  UNL1       -0.3530
     10 C         142.9451  142.4663  166.6993 C.3     1  UNL1        0.0993
     11 C         139.6139  140.6963  169.1528 C.ar    1  UNL1        0.0684
     12 C         140.2083  139.9136  168.0197 C.ar    1  UNL1        0.0100
     13 C         141.3187  140.5036  167.2018 C.ar    1  UNL1       -0.0022
     14 C         141.8347  141.8763  167.5171 C.ar    1  UNL1       -0.0061
     15 C         141.2403  142.6590  168.6503 C.ar    1  UNL1       -0.0022
     16 C         140.1299  142.0690  169.4682 C.ar    1  UNL1        0.0100
     17 N         137.3931  139.5162  170.7885 N.1     1  UNL1       -0.1908
     18 C         138.5035  140.1063  169.9706 C.1     1  UNL1        0.1004
     19 C         143.6944  140.5814  159.4788 C.3     1  UNL1        0.0913
     20 C         142.9394  139.4082  158.9276 C.3     1  UNL1        0.1087
     21 N         142.8706  138.1278  159.7060 N.3     1  UNL1       -0.1780
     22 H         143.8195  137.9218  160.0183 H       1  UNL1        0.1488
     23 S         141.9865  138.0310  160.9138 S.O2    1  UNL1        0.0603
     24 O         143.1653  137.6159  161.7433 O.2     1  UNL1       -0.1530
     25 O         140.8078  138.4461  160.0843 O.2     1  UNL1       -0.1530
     26 C         141.1024  137.9342  162.1218 C.ar    1  UNL1        0.1220
     27 C         139.6112  137.9187  161.9603 C.ar    1  UNL1        0.0206
     28 C         138.7270  137.8219  163.1681 C.ar    1  UNL1        0.0116
     29 C         139.3341  137.7406  164.5374 C.ar    1  UNL1        0.0685
     30 C         140.8253  137.7561  164.6988 C.ar    1  UNL1        0.0116
     31 C         141.7094  137.8529  163.4910 C.ar    1  UNL1        0.0206
     32 C         138.4499  137.6437  165.7453 C.1     1  UNL1        0.1004
     33 N         137.5658  137.5469  166.9531 N.1     1  UNL1       -0.1908
@<TRIPOS>BOND
     1    17    18    3
     2    18    11    1
     3    11    12   ar
     4    12    13   ar
     5    13    14   ar
     6    14    10    1
     7    10     1    1
     8     1     2    1
     9     2     3    1
    10     3     4    1
    11     4     5    1
    12     5    19    1
    13    19    20    1
    14    20    21    1
    15    21    23    1
    16    23    24    2
    17    23    25    2
    18    23    26    1
    19    26    27   ar
    20    27    28   ar
    21    28    29   ar
    22    29    32    1
    23    32    33    3
    24    29    30   ar
    25    30    31   ar
    26     5     6    1
    27     6     7    1
    28     7     8    1
    29     7     9    1
    30    14    15   ar
    31    15    16   ar
    32    16    11   ar
    33     8     1    1
    34     9     3    1
    35    31    26   ar
    36    21    22    1
@<TRIPOS>MOLECULE
*****
 33 36 0 0 0
SMALL
GASTEIGER

@<TRIPOS>ATOM
      1 N         142.9491  141.3399  164.0846 N.3     1  UNL1       -0.2647
      2 C         142.8462  142.1883  162.8518 C.3     1  UNL1        0.1037
      3 C         142.2391  141.6240  161.6017 C.3     1  UNL1        0.1470
      4 C         141.6319  141.0597  160.3514 C.3     1  UNL1        0.1035
      5 N         141.1278  139.6471  160.3340 N.3     1  UNL1       -0.2673
      6 C         141.2308  138.7987  161.5668 C.3     1  UNL1        0.1035
      7 C         141.8379  139.3630  162.8170 C.3     1  UNL1        0.1470
      8 C         142.4450  139.9273  164.0671 C.3     1  UNL1        0.1037
      9 O         141.7349  140.2113  161.5842 O.3     1  UNL1       -0.3530
     10 C         143.5562  141.9042  165.3348 C.3     1  UNL1        0.0993
     11 C         140.9553  142.7856  168.8997 C.ar    1  UNL1        0.0684
     12 C         140.3730  142.8270  167.5179 C.ar    1  UNL1        0.0100
     13 C         141.2400  142.5331  166.3296 C.ar    1  UNL1       -0.0022
     14 C         142.6892  142.1980  166.5231 C.ar    1  UNL1       -0.0061
     15 C         143.2715  142.1567  167.9049 C.ar    1  UNL1       -0.0022
     16 C         142.4045  142.4505  169.0931 C.ar    1  UNL1        0.0100
     17 N         139.2213  143.3732  171.2762 N.1     1  UNL1       -0.1908
     18 C         140.0883  143.0794  170.0879 C.1     1  UNL1        0.1004
     19 C         140.5207  139.0828  159.0838 C.3     1  UNL1        0.0913
     20 C         139.2048  139.6044  158.5875 C.3     1  UNL1        0.1087
     21 N         138.0298  139.6814  159.5167 N.3     1  UNL1       -0.1780
     22 H         137.9182  138.7545  159.9276 H       1  UNL1        0.1488
     23 S         138.0350  140.6609  160.6527 S.O2    1  UNL1        0.0603
     24 O         138.2466  141.7850  159.6824 O.2     1  UNL1       -0.1530
     25 O         137.8234  139.5367  161.6230 O.2     1  UNL1       -0.1530
     26 C         138.0402  141.6404  161.7888 C.ar    1  UNL1        0.1220
     27 C         138.4577  143.0615  161.5519 C.ar    1  UNL1        0.0206
     28 C         138.4629  144.0410  162.6878 C.ar    1  UNL1        0.0116
     29 C         138.0506  143.5994  164.0607 C.ar    1  UNL1        0.0685
     30 C         137.6331  142.1783  164.2977 C.ar    1  UNL1        0.0116
     31 C         137.6279  141.1988  163.1617 C.ar    1  UNL1        0.0206
     32 C         138.0558  144.5789  165.1968 C.1     1  UNL1        0.1004
     33 N         138.0610  145.5584  166.3328 N.1     1  UNL1       -0.1908
@<TRIPOS>BOND
     1    17    18    3
     2    18    11    1
     3    11    12   ar
     4    12    13   ar
     5    13    14   ar
     6    14    10    1
     7    10     1    1
     8     1     2    1
     9     2     3    1
    10     3     4    1
    11     4     5    1
    12     5    19    1
    13    19    20    1
    14    20    21    1
    15    21    23    1
    16    23    24    2
    17    23    25    2
    18    23    26    1
    19    26    27   ar
    20    27    28   ar
    21    28    29   ar
    22    29    32    1
    23    32    33    3
    24    29    30   ar
    25    30    31   ar
    26     5     6    1
    27     6     7    1
    28     7     8    1
    29     7     9    1
    30    14    15   ar
    31    15    16   ar
    32    16    11   ar
    33     8     1    1
    34     9     3    1
    35    31    26   ar
    36    21    22    1
@<TRIPOS>MOLECULE
*****
 33 36 0 0 0
SMALL
GASTEIGER

@<TRIPOS>ATOM
      1 N         142.2905  138.8321  164.8334 N.3     1  UNL1       -0.2647
      2 C         141.1590  137.9122  164.4821 C.3     1  UNL1        0.1037
      3 C         140.6652  137.8369  163.0678 C.3     1  UNL1        0.1470
      4 C         140.1714  137.7615  161.6534 C.3     1  UNL1        0.1035
      5 N         140.8090  138.6061  160.5903 N.3     1  UNL1       -0.2673
      6 C         141.9406  139.5260  160.9417 C.3     1  UNL1        0.1035
      7 C         142.4344  139.6014  162.3561 C.3     1  UNL1        0.1470
      8 C         142.9282  139.6767  163.7704 C.3     1  UNL1        0.1037
      9 O         141.3029  138.6815  162.0047 O.3     1  UNL1       -0.3530
     10 C         142.7843  138.9075  166.2479 C.3     1  UNL1        0.0993
     11 C         140.6762  141.5367  169.2300 C.ar    1  UNL1        0.0684
     12 C         141.7173  140.5616  169.6940 C.ar    1  UNL1        0.0100
     13 C         142.4200  139.6851  168.6999 C.ar    1  UNL1       -0.0022
     14 C         142.0817  139.7839  167.2419 C.ar    1  UNL1       -0.0061
     15 C         141.0406  140.7591  166.7780 C.ar    1  UNL1       -0.0022
     16 C         140.3379  141.6355  167.7720 C.ar    1  UNL1        0.0100
     17 N         139.2708  143.2895  171.2181 N.1     1  UNL1       -0.1908
     18 C         139.9736  142.4131  170.2240 C.1     1  UNL1        0.1004
     19 C         140.3153  138.5307  159.1760 C.3     1  UNL1        0.0913
     20 C         139.2915  139.5114  158.6857 C.3     1  UNL1        0.1087
     21 N         138.0421  139.7516  159.4801 N.3     1  UNL1       -0.1780
     22 H         137.7530  138.8479  159.8546 H       1  UNL1        0.1488
     23 S         138.0588  140.7122  160.6320 S.O2    1  UNL1        0.0603
     24 O         137.3169  139.7164  161.4733 O.2     1  UNL1       -0.1530
     25 O         138.8007  141.7081  159.7907 O.2     1  UNL1       -0.1530
     26 C         138.0755  141.6730  161.7839 C.ar    1  UNL1        0.1220
     27 C         138.0693  141.1559  163.1919 C.ar    1  UNL1        0.0206
     28 C         138.0860  142.1165  164.3438 C.ar    1  UNL1        0.0116
     29 C         138.1090  143.5943  164.0876 C.ar    1  UNL1        0.0685
     30 C         138.1152  144.1114  162.6795 C.ar    1  UNL1        0.0116
     31 C         138.0985  143.1507  161.5277 C.ar    1  UNL1        0.0206
     32 C         138.1257  144.5550  165.2395 C.1     1  UNL1        0.1004
     33 N         138.1423  145.5157  166.3913 N.1     1  UNL1       -0.1908
@<TRIPOS>BOND
     1    17    18    3
     2    18    11    1
     3    11    12   ar
     4    12    13   ar
     5    13    14   ar
     6    14    10    1
     7    10     1    1
     8     1     2    1
     9     2     3    1
    10     3     4    1
    11     4     5    1
    12     5    19    1
    13    19    20    1
    14    20    21    1
    15    21    23    1
    16    23    24    2
    17    23    25    2
    18    23    26    1
    19    26    27   ar
    20    27    28   ar
    21    28    29   ar
    22    29    32    1
    23    32    33    3
    24    29    30   ar
    25    30    31   ar
    26     5     6    1
    27     6     7    1
    28     7     8    1
    29     7     9    1
    30    14    15   ar
    31    15    16   ar
    32    16    11   ar
    33     8     1    1
    34     9     3    1
    35    31    26   ar
    36    21    22    1
@<TRIPOS>MOLECULE
*****
 33 36 0 0 0
SMALL
GASTEIGER

@<TRIPOS>ATOM
      1 N         143.1119  143.1005  164.5190 N.3     1  UNL1       -0.2647
      2 C         142.4694  144.3945  164.1157 C.3     1  UNL1        0.1037
      3 C         141.9182  144.5584  162.7303 C.3     1  UNL1        0.1470
      4 C         141.3669  144.7222  161.3449 C.3     1  UNL1        0.1035
      5 N         141.4581  143.5920  160.3629 N.3     1  UNL1       -0.2673
      6 C         142.1006  142.2980  160.7663 C.3     1  UNL1        0.1035
      7 C         142.6518  142.1341  162.1516 C.3     1  UNL1        0.1470
      8 C         143.2031  141.9703  163.5370 C.3     1  UNL1        0.1037
      9 O         142.0094  143.4282  161.7483 O.3     1  UNL1       -0.3530
     10 C         143.6632  142.9366  165.9044 C.3     1  UNL1        0.0993
     11 C         141.1985  140.9181  169.0826 C.ar    1  UNL1        0.0684
     12 C         140.6953  140.9819  167.6710 C.ar    1  UNL1        0.0100
     13 C         141.5169  141.6547  166.6116 C.ar    1  UNL1       -0.0022
     14 C         142.8416  142.2638  166.9638 C.ar    1  UNL1       -0.0061
     15 C         143.3448  142.2000  168.3755 C.ar    1  UNL1       -0.0022
     16 C         142.5233  141.5272  169.4349 C.ar    1  UNL1        0.0100
     17 N         139.5554  139.5724  171.2015 N.1     1  UNL1       -0.1908
     18 C         140.3770  140.2453  170.1420 C.1     1  UNL1        0.1004
     19 C         140.9069  143.7559  158.9775 C.3     1  UNL1        0.0913
     20 C         139.7309  142.9357  158.5364 C.3     1  UNL1        0.1087
     21 N         138.4593  142.9594  159.3317 N.3     1  UNL1       -0.1780
     22 H         137.7321  142.5635  158.7361 H       1  UNL1        0.1488
     23 S         138.3829  142.2394  160.6453 S.O2    1  UNL1        0.0603
     24 O         138.0368  143.5277  161.3313 O.2     1  UNL1       -0.1530
     25 O         138.7290  140.9512  159.9594 O.2     1  UNL1       -0.1530
     26 C         138.3064  141.5193  161.9590 C.ar    1  UNL1        0.1220
     27 C         138.0135  142.2825  163.2167 C.ar    1  UNL1        0.0206
     28 C         137.9371  141.5625  164.5303 C.ar    1  UNL1        0.0116
     29 C         138.1535  140.0793  164.5863 C.ar    1  UNL1        0.0685
     30 C         138.4465  139.3161  163.3286 C.ar    1  UNL1        0.0116
     31 C         138.5229  140.0361  162.0150 C.ar    1  UNL1        0.0206
     32 C         138.0771  139.3592  165.9000 C.1     1  UNL1        0.1004
     33 N         138.0007  138.6391  167.2136 N.1     1  UNL1       -0.1908
@<TRIPOS>BOND
     1    17    18    3
     2    18    11    1
     3    11    12   ar
     4    12    13   ar
     5    13    14   ar
     6    14    10    1
     7    10     1    1
     8     1     2    1
     9     2     3    1
    10     3     4    1
    11     4     5    1
    12     5    19    1
    13    19    20    1
    14    20    21    1
    15    21    23    1
    16    23    24    2
    17    23    25    2
    18    23    26    1
    19    26    27   ar
    20    27    28   ar
    21    28    29   ar
    22    29    32    1
    23    32    33    3
    24    29    30   ar
    25    30    31   ar
    26     5     6    1
    27     6     7    1
    28     7     8    1
    29     7     9    1
    30    14    15   ar
    31    15    16   ar
    32    16    11   ar
    33     8     1    1
    34     9     3    1
    35    31    26   ar
    36    21    22    1
@<TRIPOS>MOLECULE
*****
 33 36 0 0 0
SMALL
GASTEIGER

@<TRIPOS>ATOM
      1 N         140.0423  140.0273  164.2012 N.3     1  UNL1       -0.2647
      2 C         138.8195  140.8914  164.1116 C.3     1  UNL1        0.1037
      3 C         138.4270  141.5017  162.7988 C.3     1  UNL1        0.1470
      4 C         138.0345  142.1120  161.4860 C.3     1  UNL1        0.1035
      5 N         138.8647  141.8582  160.2628 N.3     1  UNL1       -0.2673
      6 C         140.0876  140.9940  160.3525 C.3     1  UNL1        0.1035
      7 C         140.4801  140.3837  161.6653 C.3     1  UNL1        0.1470
      8 C         140.8726  139.7735  162.9780 C.3     1  UNL1        0.1037
      9 O         139.2573  141.2478  161.5756 O.3     1  UNL1       -0.3530
     10 C         140.4348  139.4170  165.5141 C.3     1  UNL1        0.0993
     11 C         142.0384  142.0204  168.8157 C.ar    1  UNL1        0.0684
     12 C         140.7634  141.2559  169.0156 C.ar    1  UNL1        0.0100
     13 C         140.2288  140.3881  167.9150 C.ar    1  UNL1       -0.0022
     14 C         140.9693  140.2848  166.6146 C.ar    1  UNL1       -0.0061
     15 C         142.2443  141.0494  166.4148 C.ar    1  UNL1       -0.0022
     16 C         142.7788  141.9171  167.5153 C.ar    1  UNL1        0.0100
     17 N         143.1074  143.7560  171.0169 N.1     1  UNL1       -0.1908
     18 C         142.5728  142.8882  169.9163 C.1     1  UNL1        0.1004
     19 C         138.4722  142.4684  158.9500 C.3     1  UNL1        0.0913
     20 C         139.3749  143.4664  158.2871 C.3     1  UNL1        0.1087
     21 N         139.7809  144.7118  159.0178 N.3     1  UNL1       -0.1780
     22 H         138.9218  145.1582  159.3389 H       1  UNL1        0.1488
     23 S         140.6919  144.6210  160.2059 S.O2    1  UNL1        0.0603
     24 O         141.7521  144.0001  159.3455 O.2     1  UNL1       -0.1530
     25 O         139.6317  145.2419  161.0663 O.2     1  UNL1       -0.1530
     26 C         141.6029  144.5301  161.3942 C.ar    1  UNL1        0.1220
     27 C         141.2798  145.2896  162.6467 C.ar    1  UNL1        0.0206
     28 C         142.1907  145.1988  163.8349 C.ar    1  UNL1        0.0116
     29 C         143.4248  144.3485  163.7706 C.ar    1  UNL1        0.0685
     30 C         143.7479  143.5891  162.5181 C.ar    1  UNL1        0.0116
     31 C         142.8369  143.6799  161.3299 C.ar    1  UNL1        0.0206
     32 C         144.3358  144.2577  164.9589 C.1     1  UNL1        0.1004
     33 N         145.2468  144.1669  166.1470 N.1     1  UNL1       -0.1908
@<TRIPOS>BOND
     1    17    18    3
     2    18    11    1
     3    11    12   ar
     4    12    13   ar
     5    13    14   ar
     6    14    10    1
     7    10     1    1
     8     1     2    1
     9     2     3    1
    10     3     4    1
    11     4     5    1
    12     5    19    1
    13    19    20    1
    14    20    21    1
    15    21    23    1
    16    23    24    2
    17    23    25    2
    18    23    26    1
    19    26    27   ar
    20    27    28   ar
    21    28    29   ar
    22    29    32    1
    23    32    33    3
    24    29    30   ar
    25    30    31   ar
    26     5     6    1
    27     6     7    1
    28     7     8    1
    29     7     9    1
    30    14    15   ar
    31    15    16   ar
    32    16    11   ar
    33     8     1    1
    34     9     3    1
    35    31    26   ar
    36    21    22    1
@<TRIPOS>MOLECULE
*****
 33 36 0 0 0
SMALL
GASTEIGER

@<TRIPOS>ATOM
      1 N         138.9755  139.1652  164.4592 N.3     1  UNL1       -0.2647
      2 C         138.2904  139.8650  163.3232 C.3     1  UNL1        0.1037
      3 C         138.8004  139.6981  161.9225 C.3     1  UNL1        0.1470
      4 C         139.3104  139.5312  160.5217 C.3     1  UNL1        0.1035
      5 N         140.5057  138.6644  160.2571 N.3     1  UNL1       -0.2673
      6 C         141.1909  137.9645  161.3932 C.3     1  UNL1        0.1035
      7 C         140.6808  138.1314  162.7939 C.3     1  UNL1        0.1470
      8 C         140.1708  138.2983  164.1946 C.3     1  UNL1        0.1037
      9 O         139.9956  138.8313  161.6579 O.3     1  UNL1       -0.3530
     10 C         138.4655  139.3321  165.8600 C.3     1  UNL1        0.0993
     11 C         140.7180  141.9076  168.7828 C.ar    1  UNL1        0.0684
     12 C         140.7057  142.2620  167.3253 C.ar    1  UNL1        0.0100
     13 C         139.9548  141.4035  166.3510 C.ar    1  UNL1       -0.0022
     14 C         139.2163  140.1906  166.8342 C.ar    1  UNL1       -0.0061
     15 C         139.2287  139.8362  168.2918 C.ar    1  UNL1       -0.0022
     16 C         139.9795  140.6947  169.2660 C.ar    1  UNL1        0.0100
     17 N         142.2197  143.6247  170.7313 N.1     1  UNL1       -0.1908
     18 C         141.4688  142.7661  169.7570 C.1     1  UNL1        0.1004
     19 C         141.0157  138.4974  158.8564 C.3     1  UNL1        0.0913
     20 C         142.4475  138.1176  158.6199 C.3     1  UNL1        0.1087
     21 N         143.5104  139.1757  158.5984 N.3     1  UNL1       -0.1780
     22 H         143.2577  139.8320  157.8595 H       1  UNL1        0.1488
     23 S         143.7817  139.9912  159.8277 S.O2    1  UNL1        0.0603
     24 O         143.1550  141.1865  159.1731 O.2     1  UNL1       -0.1530
     25 O         144.4084  138.7960  160.4823 O.2     1  UNL1       -0.1530
     26 C         144.0531  140.8067  161.0571 C.ar    1  UNL1        0.1220
     27 C         144.0745  140.1479  162.4045 C.ar    1  UNL1        0.0206
     28 C         144.3459  140.9633  163.6339 C.ar    1  UNL1        0.0116
     29 C         144.5958  142.4376  163.5159 C.ar    1  UNL1        0.0685
     30 C         144.5744  143.0965  162.1685 C.ar    1  UNL1        0.0116
     31 C         144.3030  142.2810  160.9391 C.ar    1  UNL1        0.0206
     32 C         144.8671  143.2531  164.7453 C.1     1  UNL1        0.1004
     33 N         145.1385  144.0685  165.9747 N.1     1  UNL1       -0.1908
@<TRIPOS>BOND
     1    17    18    3
     2    18    11    1
     3    11    12   ar
     4    12    13   ar
     5    13    14   ar
     6    14    10    1
     7    10     1    1
     8     1     2    1
     9     2     3    1
    10     3     4    1
    11     4     5    1
    12     5    19    1
    13    19    20    1
    14    20    21    1
    15    21    23    1
    16    23    24    2
    17    23    25    2
    18    23    26    1
    19    26    27   ar
    20    27    28   ar
    21    28    29   ar
    22    29    32    1
    23    32    33    3
    24    29    30   ar
    25    30    31   ar
    26     5     6    1
    27     6     7    1
    28     7     8    1
    29     7     9    1
    30    14    15   ar
    31    15    16   ar
    32    16    11   ar
    33     8     1    1
    34     9     3    1
    35    31    26   ar
    36    21    22    1
@<TRIPOS>MOLECULE
*****
 33 36 0 0 0
SMALL
GASTEIGER

@<TRIPOS>ATOM
      1 N         139.7416  139.3893  162.4107 N.3     1  UNL1       -0.2647
      2 C         138.4593  140.0735  162.0402 C.3     1  UNL1        0.1037
      3 C         138.4414  141.0836  160.9314 C.3     1  UNL1        0.1470
      4 C         138.4235  142.0937  159.8225 C.3     1  UNL1        0.1035
      5 N         139.6879  142.4195  159.0843 N.3     1  UNL1       -0.2673
      6 C         140.9703  141.7352  159.4549 C.3     1  UNL1        0.1035
      7 C         140.9882  140.7251  160.5637 C.3     1  UNL1        0.1470
      8 C         141.0061  139.7151  161.6725 C.3     1  UNL1        0.1037
      9 O         139.7059  141.4094  160.1932 O.3     1  UNL1       -0.3530
     10 C         139.7595  138.3792  163.5196 C.3     1  UNL1        0.0993
     11 C         139.3394  139.7224  167.7938 C.ar    1  UNL1        0.0684
     12 C         138.1849  139.0652  167.0973 C.ar    1  UNL1        0.0100
     13 C         138.3249  138.6174  165.6725 C.ar    1  UNL1       -0.0022
     14 C         139.6195  138.8269  164.9443 C.ar    1  UNL1       -0.0061
     15 C         140.7740  139.4842  165.6409 C.ar    1  UNL1       -0.0022
     16 C         140.6339  139.9319  167.0656 C.ar    1  UNL1        0.0100
     17 N         139.0593  140.6179  170.6433 N.1     1  UNL1       -0.1908
     18 C         139.1993  140.1701  169.2185 C.1     1  UNL1        0.1004
     19 C         139.6701  143.4295  157.9755 C.3     1  UNL1        0.0913
     20 C         140.2792  144.7842  158.1851 C.3     1  UNL1        0.1087
     21 N         140.0442  145.5216  159.4700 N.3     1  UNL1       -0.1780
     22 H         139.0336  145.5948  159.5868 H       1  UNL1        0.1488
     23 S         140.5907  144.9787  160.7570 S.O2    1  UNL1        0.0603
     24 O         139.2113  144.9868  161.3461 O.2     1  UNL1       -0.1530
     25 O         141.9701  144.9705  160.1679 O.2     1  UNL1       -0.1530
     26 C         141.1372  144.4357  162.0441 C.ar    1  UNL1        0.1220
     27 C         140.2811  143.5635  162.9138 C.ar    1  UNL1        0.0206
     28 C         140.8275  143.0205  164.2008 C.ar    1  UNL1        0.0116
     29 C         142.2301  143.3498  164.6182 C.ar    1  UNL1        0.0685
     30 C         143.0863  144.2220  163.7486 C.ar    1  UNL1        0.0116
     31 C         142.5398  144.7650  162.4615 C.ar    1  UNL1        0.0206
     32 C         142.7767  142.8068  165.9053 C.1     1  UNL1        0.1004
     33 N         143.3231  142.2639  167.1923 N.1     1  UNL1       -0.1908
@<TRIPOS>BOND
     1    17    18    3
     2    18    11    1
     3    11    12   ar
     4    12    13   ar
     5    13    14   ar
     6    14    10    1
     7    10     1    1
     8     1     2    1
     9     2     3    1
    10     3     4    1
    11     4     5    1
    12     5    19    1
    13    19    20    1
    14    20    21    1
    15    21    23    1
    16    23    24    2
    17    23    25    2
    18    23    26    1
    19    26    27   ar
    20    27    28   ar
    21    28    29   ar
    22    29    32    1
    23    32    33    3
    24    29    30   ar
    25    30    31   ar
    26     5     6    1
    27     6     7    1
    28     7     8    1
    29     7     9    1
    30    14    15   ar
    31    15    16   ar
    32    16    11   ar
    33     8     1    1
    34     9     3    1
    35    31    26   ar
    36    21    22    1
@<TRIPOS>MOLECULE
*****
 33 36 0 0 0
SMALL
GASTEIGER

@<TRIPOS>ATOM
      1 N         138.6405  139.2527  165.7059 N.3     1  UNL1       -0.2647
      2 C         138.1630  140.4998  165.0230 C.3     1  UNL1        0.1037
      3 C         138.1126  140.5623  163.5251 C.3     1  UNL1        0.1470
      4 C         138.0622  140.6249  162.0272 C.3     1  UNL1        0.1035
      5 N         138.4894  139.4402  161.2124 N.3     1  UNL1       -0.2673
      6 C         138.9670  138.1929  161.8954 C.3     1  UNL1        0.1035
      7 C         139.0173  138.1305  163.3932 C.3     1  UNL1        0.1470
      8 C         139.0677  138.0680  164.8910 C.3     1  UNL1        0.1037
      9 O         138.5398  139.3776  162.7103 O.3     1  UNL1       -0.3530
     10 C         138.6909  139.1901  167.2038 C.3     1  UNL1        0.0993
     11 C         141.4050  141.9641  169.4816 C.ar    1  UNL1        0.0684
     12 C         141.7407  141.5765  168.0721 C.ar    1  UNL1        0.0100
     13 C         140.8360  140.6518  167.3127 C.ar    1  UNL1       -0.0022
     14 C         139.5956  140.1148  167.9631 C.ar    1  UNL1       -0.0061
     15 C         139.2599  140.5025  169.3727 C.ar    1  UNL1       -0.0022
     16 C         140.1646  141.4271  170.1320 C.ar    1  UNL1        0.0100
     17 N         143.2145  143.8134  171.0002 N.1     1  UNL1       -0.1908
     18 C         142.3097  142.8887  170.2409 C.1     1  UNL1        0.1004
     19 C         138.4391  139.5026  159.7145 C.3     1  UNL1        0.0913
     20 C         139.5632  140.1393  158.9522 C.3     1  UNL1        0.1087
     21 N         140.9850  139.8034  159.2924 N.3     1  UNL1       -0.1780
     22 H         141.5374  139.9761  158.4526 H       1  UNL1        0.1488
     23 S         141.6748  140.5148  160.4184 S.O2    1  UNL1        0.0603
     24 O         141.1357  141.8235  159.9218 O.2     1  UNL1       -0.1530
     25 O         142.2139  139.2061  160.9150 O.2     1  UNL1       -0.1530
     26 C         142.3647  141.2263  161.5445 C.ar    1  UNL1        0.1220
     27 C         143.6570  141.9463  161.2968 C.ar    1  UNL1        0.0206
     28 C         144.3469  142.6578  162.4228 C.ar    1  UNL1        0.0116
     29 C         143.7445  142.6491  163.7965 C.ar    1  UNL1        0.0685
     30 C         142.4522  141.9290  164.0441 C.ar    1  UNL1        0.0116
     31 C         141.7623  141.2176  162.9181 C.ar    1  UNL1        0.0206
     32 C         144.4344  143.3605  164.9225 C.1     1  UNL1        0.1004
     33 N         145.1242  144.0719  166.0486 N.1     1  UNL1       -0.1908
@<TRIPOS>BOND
     1    17    18    3
     2    18    11    1
     3    11    12   ar
     4    12    13   ar
     5    13    14   ar
     6    14    10    1
     7    10     1    1
     8     1     2    1
     9     2     3    1
    10     3     4    1
    11     4     5    1
    12     5    19    1
    13    19    20    1
    14    20    21    1
    15    21    23    1
    16    23    24    2
    17    23    25    2
    18    23    26    1
    19    26    27   ar
    20    27    28   ar
    21    28    29   ar
    22    29    32    1
    23    32    33    3
    24    29    30   ar
    25    30    31   ar
    26     5     6    1
    27     6     7    1
    28     7     8    1
    29     7     9    1
    30    14    15   ar
    31    15    16   ar
    32    16    11   ar
    33     8     1    1
    34     9     3    1
    35    31    26   ar
    36    21    22    1
