@<TRIPOS>MOLECULE
*****
 33 37 0 0 0
SMALL
GASTEIGER

@<TRIPOS>ATOM
      1 C         143.6369  137.6414  156.0777 C.ar    1  UNL1        0.0829
      2 C         144.5884  138.1745  155.0480 C.ar    1  UNL1        0.0193
      3 C         145.2163  139.5239  155.2344 C.ar    1  UNL1        0.0074
      4 C         144.8927  140.3402  156.4505 C.ar    1  UNL1        0.0676
      5 C         145.5207  141.6897  156.6369 C.ar    1  UNL1        0.1378
      6 N         145.1970  142.5060  157.8530 N.ar    1  UNL1       -0.1960
      7 C         144.2454  141.9728  158.8828 C.ar    1  UNL1        0.2406
      8 N         143.6175  140.6234  158.6964 N.ar    1  UNL1       -0.1919
      9 C         143.9412  139.8071  157.4802 C.ar    1  UNL1        0.1680
     10 N         143.3133  138.4577  157.2938 N.ar    1  UNL1       -0.2264
     11 N         146.4722  142.2228  155.6072 N.pl3   1  UNL1       -0.2897
     12 C         147.9341  141.8994  155.6981 C.3     1  UNL1        0.1242
     13 C         148.8856  142.4326  154.6683 C.3     1  UNL1        0.1636
     14 O         148.3752  143.2891  153.5477 O.3     1  UNL1       -0.3502
     15 C         146.9133  143.6125  153.4568 C.3     1  UNL1        0.1618
     16 C         145.9618  143.0794  154.4865 C.3     1  UNL1        0.1038
     17 C         144.4999  143.4028  154.3956 C.3     1  UNL1        0.0241
     18 C         141.7531  133.5930  155.5186 C.ar    1  UNL1        0.1370
     19 C         141.1090  134.8089  154.9212 C.ar    1  UNL1        0.0367
     20 C         141.7370  136.1584  155.1076 C.ar    1  UNL1        0.0046
     21 C         143.0089  136.2919  155.8913 C.ar    1  UNL1        0.0177
     22 C         143.6530  135.0761  156.4886 C.ar    1  UNL1        0.0027
     23 C         143.0251  133.7266  156.3023 C.ar    1  UNL1        0.0410
     24 C         143.6692  132.5108  156.8996 C.3     1  UNL1        0.1666
     25 O         142.8374  131.5138  157.6506 O.3     1  UNL1       -0.3771
     26 H         142.4888  131.9254  158.4568 H       1  UNL1        0.2109
     27 C         141.3713  131.4696  154.0712 C.3     1  UNL1        0.2525
     28 O         141.1252  132.2436  155.3322 O.3     1  UNL1       -0.4717
     29 N         143.9218  142.7891  160.0989 N.ar    1  UNL1       -0.2558
     30 C         144.7321  142.8522  161.3597 C.ar    1  UNL1        0.1050
     31 C         144.0421  143.7877  162.3077 C.ar    1  UNL1        0.1197
     32 N         142.8055  144.3027  161.6329 N.ar    1  UNL1       -0.2219
     33 C         142.7311  143.6856  160.2678 C.ar    1  UNL1        0.1851
@<TRIPOS>BOND
     1    27    28    1
     2    28    18    1
     3    18    19   ar
     4    19    20   ar
     5    20    21   ar
     6    21     1    1
     7     1     2   ar
     8     2     3   ar
     9     3     4   ar
    10     4     5   ar
    11     5    11    1
    12    11    12    1
    13    12    13    1
    14    13    14    1
    15    14    15    1
    16    15    16    1
    17    16    17    1
    18     5     6   ar
    19     6     7   ar
    20     7    29    1
    21    29    30   ar
    22    30    31   ar
    23    31    32   ar
    24    32    33   ar
    25     7     8   ar
    26     8     9   ar
    27     9    10   ar
    28    21    22   ar
    29    22    23   ar
    30    23    24    1
    31    24    25    1
    32    23    18   ar
    33    10     1   ar
    34     9     4   ar
    35    16    11    1
    36    33    29   ar
    37    25    26    1
@<TRIPOS>MOLECULE
*****
 33 37 0 0 0
SMALL
GASTEIGER

@<TRIPOS>ATOM
      1 C         139.2490  140.0079  162.3664 C.ar    1  UNL1        0.0829
      2 C         138.3103  140.9243  161.6390 C.ar    1  UNL1        0.0193
      3 C         138.3947  141.0542  160.1471 C.ar    1  UNL1        0.0074
      4 C         139.4178  140.2676  159.3825 C.ar    1  UNL1        0.0676
      5 C         139.5021  140.3975  157.8904 C.ar    1  UNL1        0.1378
      6 N         140.5252  139.6109  157.1258 N.ar    1  UNL1       -0.1960
      7 C         141.4639  138.6945  157.8532 C.ar    1  UNL1        0.2406
      8 N         141.3795  138.5647  159.3452 N.ar    1  UNL1       -0.1919
      9 C         140.3564  139.3512  160.1098 C.ar    1  UNL1        0.1680
     10 N         140.2720  139.2214  161.6017 N.ar    1  UNL1       -0.2264
     11 N         138.5635  141.3139  157.1631 N.pl3   1  UNL1       -0.2897
     12 C         137.2165  140.8170  156.7286 C.3     1  UNL1        0.1242
     13 C         136.2778  141.7335  156.0013 C.3     1  UNL1        0.1636
     14 O         136.6861  143.1468  155.7084 O.3     1  UNL1       -0.3502
     15 C         138.0331  143.6437  156.1429 C.3     1  UNL1        0.1618
     16 C         138.9718  142.7273  156.8702 C.3     1  UNL1        0.1038
     17 C         140.3187  143.2242  157.3046 C.3     1  UNL1        0.0241
     18 C         138.9958  139.6182  166.8424 C.ar    1  UNL1        0.1370
     19 C         139.6468  140.8230  166.2301 C.ar    1  UNL1        0.0367
     20 C         139.7312  140.9528  164.7380 C.ar    1  UNL1        0.0046
     21 C         139.1646  139.8780  163.8584 C.ar    1  UNL1        0.0177
     22 C         138.5136  138.6733  164.4707 C.ar    1  UNL1        0.0027
     23 C         138.4293  138.5434  165.9627 C.ar    1  UNL1        0.0410
     24 C         137.7783  137.3387  166.5750 C.3     1  UNL1        0.1666
     25 O         136.6900  137.5103  167.5928 O.3     1  UNL1       -0.3771
     26 H         137.0563  137.9206  168.3918 H       1  UNL1        0.2109
     27 C         139.6646  140.4417  169.2139 C.3     1  UNL1        0.2525
     28 O         138.9114  139.4883  168.3343 O.3     1  UNL1       -0.4717
     29 N         142.4870  137.9079  157.0886 N.ar    1  UNL1       -0.2558
     30 C         142.5760  136.4123  157.0166 C.ar    1  UNL1        0.1050
     31 C         143.7447  136.0589  156.1452 C.ar    1  UNL1        0.1197
     32 N         144.3780  137.3361  155.6787 N.ar    1  UNL1       -0.2219
     33 C         143.6007  138.4790  156.2617 C.ar    1  UNL1        0.1851
@<TRIPOS>BOND
     1    27    28    1
     2    28    18    1
     3    18    19   ar
     4    19    20   ar
     5    20    21   ar
     6    21     1    1
     7     1     2   ar
     8     2     3   ar
     9     3     4   ar
    10     4     5   ar
    11     5    11    1
    12    11    12    1
    13    12    13    1
    14    13    14    1
    15    14    15    1
    16    15    16    1
    17    16    17    1
    18     5     6   ar
    19     6     7   ar
    20     7    29    1
    21    29    30   ar
    22    30    31   ar
    23    31    32   ar
    24    32    33   ar
    25     7     8   ar
    26     8     9   ar
    27     9    10   ar
    28    21    22   ar
    29    22    23   ar
    30    23    24    1
    31    24    25    1
    32    23    18   ar
    33    10     1   ar
    34     9     4   ar
    35    16    11    1
    36    33    29   ar
    37    25    26    1
@<TRIPOS>MOLECULE
*****
 33 37 0 0 0
SMALL
GASTEIGER

@<TRIPOS>ATOM
      1 C         140.9813  138.9109  159.1174 C.ar    1  UNL1        0.0829
      2 C         140.3021  140.2418  158.9866 C.ar    1  UNL1        0.0193
      3 C         140.1730  141.1387  160.1819 C.ar    1  UNL1        0.0074
      4 C         140.7232  140.7046  161.5081 C.ar    1  UNL1        0.0676
      5 C         140.5941  141.6016  162.7035 C.ar    1  UNL1        0.1378
      6 N         141.1443  141.1675  164.0298 N.ar    1  UNL1       -0.1960
      7 C         141.8235  139.8365  164.1606 C.ar    1  UNL1        0.2406
      8 N         141.9526  138.9396  162.9653 N.ar    1  UNL1       -0.1919
      9 C         141.4024  139.3737  161.6390 C.ar    1  UNL1        0.1680
     10 N         141.5315  138.4768  160.4437 N.ar    1  UNL1       -0.2264
     11 N         139.9149  142.9325  162.5727 N.pl3   1  UNL1       -0.2897
     12 C         140.6838  144.1215  162.0776 C.3     1  UNL1        0.1242
     13 C         140.0045  145.4525  161.9467 C.3     1  UNL1        0.1636
     14 O         138.5563  145.5945  162.3109 O.3     1  UNL1       -0.3502
     15 C         137.7874  144.4055  162.8060 C.3     1  UNL1        0.1618
     16 C         138.4667  143.0745  162.9369 C.3     1  UNL1        0.1038
     17 C         137.6978  141.8856  163.4320 C.3     1  UNL1        0.0241
     18 C         141.3687  136.2201  155.5313 C.ar    1  UNL1        0.1370
     19 C         140.0548  136.8752  155.8390 C.ar    1  UNL1        0.0367
     20 C         139.9257  137.7722  157.0344 C.ar    1  UNL1        0.0046
     21 C         141.1104  138.0139  157.9220 C.ar    1  UNL1        0.0177
     22 C         142.4243  137.3588  157.6144 C.ar    1  UNL1        0.0027
     23 C         142.5534  136.4619  156.4190 C.ar    1  UNL1        0.0410
     24 C         143.8672  135.8068  156.1114 C.3     1  UNL1        0.1666
     25 O         144.9277  136.5648  155.3692 O.3     1  UNL1       -0.3771
     26 H         144.6225  136.7482  154.4669 H       1  UNL1        0.2109
     27 C         141.7034  135.9149  152.9731 C.3     1  UNL1        0.2525
     28 O         141.4978  135.3232  154.3360 O.3     1  UNL1       -0.4717
     29 N         142.3737  139.4024  165.4868 N.ar    1  UNL1       -0.2558
     30 C         141.9349  139.9045  166.8305 C.ar    1  UNL1        0.1050
     31 C         142.7492  139.2024  167.8763 C.ar    1  UNL1        0.1197
     32 N         143.6914  138.2663  167.1791 N.ar    1  UNL1       -0.2219
     33 C         143.4593  138.3899  165.7023 C.ar    1  UNL1        0.1851
@<TRIPOS>BOND
     1    27    28    1
     2    28    18    1
     3    18    19   ar
     4    19    20   ar
     5    20    21   ar
     6    21     1    1
     7     1     2   ar
     8     2     3   ar
     9     3     4   ar
    10     4     5   ar
    11     5    11    1
    12    11    12    1
    13    12    13    1
    14    13    14    1
    15    14    15    1
    16    15    16    1
    17    16    17    1
    18     5     6   ar
    19     6     7   ar
    20     7    29    1
    21    29    30   ar
    22    30    31   ar
    23    31    32   ar
    24    32    33   ar
    25     7     8   ar
    26     8     9   ar
    27     9    10   ar
    28    21    22   ar
    29    22    23   ar
    30    23    24    1
    31    24    25    1
    32    23    18   ar
    33    10     1   ar
    34     9     4   ar
    35    16    11    1
    36    33    29   ar
    37    25    26    1
@<TRIPOS>MOLECULE
*****
 33 37 0 0 0
SMALL
GASTEIGER

@<TRIPOS>ATOM
      1 C         139.9546  140.5055  163.0394 C.ar    1  UNL1        0.0829
      2 C         139.9923  141.9168  162.5328 C.ar    1  UNL1        0.0193
      3 C         140.3194  142.1888  161.0944 C.ar    1  UNL1        0.0074
      4 C         140.6088  141.0495  160.1626 C.ar    1  UNL1        0.0676
      5 C         140.9360  141.3215  158.7242 C.ar    1  UNL1        0.1378
      6 N         141.2254  140.1822  157.7925 N.ar    1  UNL1       -0.1960
      7 C         141.1877  138.7708  158.2992 C.ar    1  UNL1        0.2406
      8 N         140.8606  138.4988  159.7375 N.ar    1  UNL1       -0.1919
      9 C         140.5712  139.6382  160.6693 C.ar    1  UNL1        0.1680
     10 N         140.2440  139.3662  162.1077 N.ar    1  UNL1       -0.2264
     11 N         140.9737  142.7328  158.2176 N.pl3   1  UNL1       -0.2897
     12 C         139.7372  143.3557  157.6403 C.3     1  UNL1        0.1242
     13 C         139.7750  144.7671  157.1337 C.3     1  UNL1        0.1636
     14 O         141.0491  145.5555  157.2043 O.3     1  UNL1       -0.3502
     15 C         142.2855  144.9326  157.7815 C.3     1  UNL1        0.1618
     16 C         142.2478  143.5213  158.2882 C.3     1  UNL1        0.1038
     17 C         143.4843  142.8984  158.8654 C.3     1  UNL1        0.0241
     18 C         138.9732  139.6894  167.3546 C.ar    1  UNL1        0.1370
     19 C         139.7757  140.9013  166.9843 C.ar    1  UNL1        0.0367
     20 C         140.1028  141.1733  165.5458 C.ar    1  UNL1        0.0046
     21 C         139.6275  140.2335  164.4778 C.ar    1  UNL1        0.0177
     22 C         138.8249  139.0216  164.8482 C.ar    1  UNL1        0.0027
     23 C         138.4978  138.7495  166.2866 C.ar    1  UNL1        0.0410
     24 C         137.6952  137.5376  166.6569 C.3     1  UNL1        0.1666
     25 O         136.6253  137.6376  167.7034 O.3     1  UNL1       -0.3771
     26 H         137.0308  137.8326  168.5628 H       1  UNL1        0.2109
     27 C         139.0496  140.3993  169.8526 C.3     1  UNL1        0.2525
     28 O         138.6460  139.4173  168.7930 O.3     1  UNL1       -0.4717
     29 N         141.4772  137.6315  157.3674 N.ar    1  UNL1       -0.2558
     30 C         140.5593  137.1083  156.3026 C.ar    1  UNL1        0.1050
     31 C         141.2502  135.9687  155.6140 C.ar    1  UNL1        0.1197
     32 N         142.5950  135.7876  156.2532 N.ar    1  UNL1       -0.2219
     33 C         142.7354  136.8152  157.3370 C.ar    1  UNL1        0.1851
@<TRIPOS>BOND
     1    27    28    1
     2    28    18    1
     3    18    19   ar
     4    19    20   ar
     5    20    21   ar
     6    21     1    1
     7     1     2   ar
     8     2     3   ar
     9     3     4   ar
    10     4     5   ar
    11     5    11    1
    12    11    12    1
    13    12    13    1
    14    13    14    1
    15    14    15    1
    16    15    16    1
    17    16    17    1
    18     5     6   ar
    19     6     7   ar
    20     7    29    1
    21    29    30   ar
    22    30    31   ar
    23    31    32   ar
    24    32    33   ar
    25     7     8   ar
    26     8     9   ar
    27     9    10   ar
    28    21    22   ar
    29    22    23   ar
    30    23    24    1
    31    24    25    1
    32    23    18   ar
    33    10     1   ar
    34     9     4   ar
    35    16    11    1
    36    33    29   ar
    37    25    26    1
@<TRIPOS>MOLECULE
*****
 33 37 0 0 0
SMALL
GASTEIGER

@<TRIPOS>ATOM
      1 C         139.5637  139.2832  162.1825 C.ar    1  UNL1        0.0829
      2 C         140.7332  138.5464  161.6001 C.ar    1  UNL1        0.0193
      3 C         140.9207  138.4928  160.1129 C.ar    1  UNL1        0.0074
      4 C         139.9386  139.1760  159.2080 C.ar    1  UNL1        0.0676
      5 C         140.1262  139.1223  157.7207 C.ar    1  UNL1        0.1378
      6 N         139.1441  139.8056  156.8158 N.ar    1  UNL1       -0.1960
      7 C         137.9745  140.5425  157.3983 C.ar    1  UNL1        0.2406
      8 N         137.7871  140.5961  158.8855 N.ar    1  UNL1       -0.1919
      9 C         138.7691  139.9128  159.7904 C.ar    1  UNL1        0.1680
     10 N         138.5817  139.9665  161.2776 N.ar    1  UNL1       -0.2264
     11 N         141.2957  138.3855  157.1383 N.pl3   1  UNL1       -0.2897
     12 C         141.1825  136.9216  156.8313 C.3     1  UNL1        0.1242
     13 C         142.3521  136.1848  156.2489 C.3     1  UNL1        0.1636
     14 O         143.6348  136.9118  155.9735 O.3     1  UNL1       -0.3502
     15 C         143.7481  138.3757  156.2805 C.3     1  UNL1        0.1618
     16 C         142.5786  139.1125  156.8629 C.3     1  UNL1        0.1038
     17 C         142.6918  140.5764  157.1699 C.3     1  UNL1        0.0241
     18 C         139.0011  139.4441  166.6444 C.ar    1  UNL1        0.1370
     19 C         139.7238  140.5533  165.9391 C.ar    1  UNL1        0.0367
     20 C         139.9113  140.4997  164.4518 C.ar    1  UNL1        0.0046
     21 C         139.3762  139.3369  163.6698 C.ar    1  UNL1        0.0177
     22 C         138.6535  138.2277  164.3751 C.ar    1  UNL1        0.0027
     23 C         138.4659  138.2813  165.8623 C.ar    1  UNL1        0.0410
     24 C         137.7432  137.1721  166.5676 C.3     1  UNL1        0.1666
     25 O         136.6823  137.4919  167.5785 O.3     1  UNL1       -0.3771
     26 H         137.0857  137.9339  168.3419 H       1  UNL1        0.2109
     27 C         139.8843  140.0861  169.0018 C.3     1  UNL1        0.2525
     28 O         138.8136  139.4977  168.1316 O.3     1  UNL1       -0.4717
     29 N         136.9925  141.2257  156.4934 N.ar    1  UNL1       -0.2558
     30 C         135.6989  140.6485  156.0000 C.ar    1  UNL1        0.1050
     31 C         135.0385  141.6722  155.1247 C.ar    1  UNL1        0.1197
     32 N         135.9240  142.8820  155.0772 N.ar    1  UNL1       -0.2219
     33 C         137.1316  142.6061  155.9232 C.ar    1  UNL1        0.1851
@<TRIPOS>BOND
     1    27    28    1
     2    28    18    1
     3    18    19   ar
     4    19    20   ar
     5    20    21   ar
     6    21     1    1
     7     1     2   ar
     8     2     3   ar
     9     3     4   ar
    10     4     5   ar
    11     5    11    1
    12    11    12    1
    13    12    13    1
    14    13    14    1
    15    14    15    1
    16    15    16    1
    17    16    17    1
    18     5     6   ar
    19     6     7   ar
    20     7    29    1
    21    29    30   ar
    22    30    31   ar
    23    31    32   ar
    24    32    33   ar
    25     7     8   ar
    26     8     9   ar
    27     9    10   ar
    28    21    22   ar
    29    22    23   ar
    30    23    24    1
    31    24    25    1
    32    23    18   ar
    33    10     1   ar
    34     9     4   ar
    35    16    11    1
    36    33    29   ar
    37    25    26    1
@<TRIPOS>MOLECULE
*****
 33 37 0 0 0
SMALL
GASTEIGER

@<TRIPOS>ATOM
      1 C         143.2016  137.6264  156.5405 C.ar    1  UNL1        0.0829
      2 C         142.5719  138.3884  157.6687 C.ar    1  UNL1        0.0193
      3 C         143.0410  139.7764  157.9901 C.ar    1  UNL1        0.0074
      4 C         144.1397  140.4024  157.1833 C.ar    1  UNL1        0.0676
      5 C         144.6088  141.7905  157.5048 C.ar    1  UNL1        0.1378
      6 N         145.7075  142.4165  156.6980 N.ar    1  UNL1       -0.1960
      7 C         146.3372  141.6544  155.5698 C.ar    1  UNL1        0.2406
      8 N         145.8681  140.2664  155.2483 N.ar    1  UNL1       -0.1919
      9 C         144.7694  139.6404  156.0551 C.ar    1  UNL1        0.1680
     10 N         144.3003  138.2524  155.7337 N.ar    1  UNL1       -0.2264
     11 N         143.9791  142.5525  158.6330 N.pl3   1  UNL1       -0.2897
     12 C         144.5274  142.4235  160.0232 C.3     1  UNL1        0.1242
     13 C         143.8976  143.1856  161.1514 C.3     1  UNL1        0.1636
     14 O         142.7198  144.0765  160.8894 O.3     1  UNL1       -0.3502
     15 C         142.1715  144.2055  159.4991 C.3     1  UNL1        0.1618
     16 C         142.8012  143.4435  158.3709 C.3     1  UNL1        0.1038
     17 C         142.2530  143.5725  156.9807 C.3     1  UNL1        0.0241
     18 C         141.7944  133.4622  155.5761 C.ar    1  UNL1        0.1370
     19 C         141.1044  134.6468  154.9673 C.ar    1  UNL1        0.0367
     20 C         141.5735  136.0349  155.2888 C.ar    1  UNL1        0.0046
     21 C         142.7325  136.2383  156.2190 C.ar    1  UNL1        0.0177
     22 C         143.4224  135.0537  156.8278 C.ar    1  UNL1        0.0027
     23 C         142.9534  133.6657  156.5064 C.ar    1  UNL1        0.0410
     24 C         143.6434  132.4810  157.1152 C.3     1  UNL1        0.1666
     25 O         142.8353  131.3437  157.6658 O.3     1  UNL1       -0.3771
     26 H         142.3288  131.6493  158.4346 H       1  UNL1        0.2109
     27 C         141.8253  131.3802  154.0224 C.3     1  UNL1        0.2525
     28 O         141.3254  132.0742  155.2547 O.3     1  UNL1       -0.4717
     29 N         147.4359  142.2804  154.7630 N.ar    1  UNL1       -0.2558
     30 C         147.2954  143.4610  153.8484 C.ar    1  UNL1        0.1050
     31 C         148.6407  143.7460  153.2493 C.ar    1  UNL1        0.1197
     32 N         149.6127  142.7416  153.7937 N.ar    1  UNL1       -0.2219
     33 C         148.8682  141.8358  154.7292 C.ar    1  UNL1        0.1851
@<TRIPOS>BOND
     1    27    28    1
     2    28    18    1
     3    18    19   ar
     4    19    20   ar
     5    20    21   ar
     6    21     1    1
     7     1     2   ar
     8     2     3   ar
     9     3     4   ar
    10     4     5   ar
    11     5    11    1
    12    11    12    1
    13    12    13    1
    14    13    14    1
    15    14    15    1
    16    15    16    1
    17    16    17    1
    18     5     6   ar
    19     6     7   ar
    20     7    29    1
    21    29    30   ar
    22    30    31   ar
    23    31    32   ar
    24    32    33   ar
    25     7     8   ar
    26     8     9   ar
    27     9    10   ar
    28    21    22   ar
    29    22    23   ar
    30    23    24    1
    31    24    25    1
    32    23    18   ar
    33    10     1   ar
    34     9     4   ar
    35    16    11    1
    36    33    29   ar
    37    25    26    1
@<TRIPOS>MOLECULE
*****
 33 37 0 0 0
SMALL
GASTEIGER

@<TRIPOS>ATOM
      1 C         142.3430  137.0547  156.9869 C.ar    1  UNL1        0.0829
      2 C         141.6471  138.1622  156.2528 C.ar    1  UNL1        0.0193
      3 C         141.6500  139.5527  156.8155 C.ar    1  UNL1        0.0074
      4 C         142.3488  139.8356  158.1122 C.ar    1  UNL1        0.0676
      5 C         142.3517  141.2261  158.6749 C.ar    1  UNL1        0.1378
      6 N         143.0505  141.5090  159.9717 N.ar    1  UNL1       -0.1960
      7 C         143.7464  140.4014  160.7058 C.ar    1  UNL1        0.2406
      8 N         143.7435  139.0109  160.1432 N.ar    1  UNL1       -0.1919
      9 C         143.0447  138.7280  158.8464 C.ar    1  UNL1        0.1680
     10 N         143.0418  137.3376  158.2837 N.ar    1  UNL1       -0.2264
     11 N         141.6557  142.3336  157.9407 N.pl3   1  UNL1       -0.2897
     12 C         142.3997  143.1376  156.9160 C.3     1  UNL1        0.1242
     13 C         141.7038  144.2452  156.1819 C.3     1  UNL1        0.1636
     14 O         140.2638  144.5488  156.4724 O.3     1  UNL1       -0.3502
     15 C         139.5199  143.7448  157.4972 C.3     1  UNL1        0.1618
     16 C         140.2158  142.6372  158.2313 C.3     1  UNL1        0.1038
     17 C         139.4718  141.8332  159.2560 C.3     1  UNL1        0.0241
     18 C         142.3345  132.8831  155.2991 C.ar    1  UNL1        0.1370
     19 C         141.3973  133.9169  154.7485 C.ar    1  UNL1        0.0367
     20 C         141.4002  135.3074  155.3112 C.ar    1  UNL1        0.0046
     21 C         142.3401  135.6641  156.4243 C.ar    1  UNL1        0.0177
     22 C         143.2773  134.6304  156.9749 C.ar    1  UNL1        0.0027
     23 C         143.2745  133.2399  156.4123 C.ar    1  UNL1        0.0410
     24 C         144.2116  132.2062  156.9629 C.3     1  UNL1        0.1666
     25 O         145.5952  132.0721  156.3994 O.3     1  UNL1       -0.3771
     26 H         145.5417  131.7691  155.4795 H       1  UNL1        0.2109
     27 C         143.1596  131.1710  153.5278 C.3     1  UNL1        0.2525
     28 O         142.3316  131.4927  154.7365 O.3     1  UNL1       -0.4717
     29 N         144.4452  140.6842  162.0026 N.ar    1  UNL1       -0.2558
     30 C         145.1742  141.9472  162.3541 C.ar    1  UNL1        0.1050
     31 C         145.7172  141.7974  163.7443 C.ar    1  UNL1        0.1197
     32 N         145.3238  140.4418  164.2520 N.ar    1  UNL1       -0.2219
     33 C         144.5376  139.7538  163.1756 C.ar    1  UNL1        0.1851
@<TRIPOS>BOND
     1    27    28    1
     2    28    18    1
     3    18    19   ar
     4    19    20   ar
     5    20    21   ar
     6    21     1    1
     7     1     2   ar
     8     2     3   ar
     9     3     4   ar
    10     4     5   ar
    11     5    11    1
    12    11    12    1
    13    12    13    1
    14    13    14    1
    15    14    15    1
    16    15    16    1
    17    16    17    1
    18     5     6   ar
    19     6     7   ar
    20     7    29    1
    21    29    30   ar
    22    30    31   ar
    23    31    32   ar
    24    32    33   ar
    25     7     8   ar
    26     8     9   ar
    27     9    10   ar
    28    21    22   ar
    29    22    23   ar
    30    23    24    1
    31    24    25    1
    32    23    18   ar
    33    10     1   ar
    34     9     4   ar
    35    16    11    1
    36    33    29   ar
    37    25    26    1
@<TRIPOS>MOLECULE
*****
 33 37 0 0 0
SMALL
GASTEIGER

@<TRIPOS>ATOM
      1 C         141.5193  139.4076  159.3263 C.ar    1  UNL1        0.0829
      2 C         142.2428  140.6928  159.5996 C.ar    1  UNL1        0.0193
      3 C         142.1408  141.3383  160.9497 C.ar    1  UNL1        0.0074
      4 C         141.3152  140.6987  162.0264 C.ar    1  UNL1        0.0676
      5 C         141.2132  141.3444  163.3766 C.ar    1  UNL1        0.1378
      6 N         140.3877  140.7048  164.4533 N.ar    1  UNL1       -0.1960
      7 C         139.6642  139.4195  164.1799 C.ar    1  UNL1        0.2406
      8 N         139.7662  138.7739  162.8298 N.ar    1  UNL1       -0.1919
      9 C         140.5917  139.4135  161.7531 C.ar    1  UNL1        0.1680
     10 N         140.6938  138.7680  160.4030 N.ar    1  UNL1       -0.2264
     11 N         141.9367  142.6296  163.6499 N.pl3   1  UNL1       -0.2897
     12 C         141.2684  143.9418  163.3647 C.3     1  UNL1        0.1242
     13 C         141.9920  145.2271  163.6381 C.3     1  UNL1        0.1636
     14 O         143.3838  145.2000  164.1967 O.3     1  UNL1       -0.3502
     15 C         144.0522  143.8877  164.4819 C.3     1  UNL1        0.1618
     16 C         143.3287  142.6026  164.2085 C.3     1  UNL1        0.1038
     17 C         143.9970  141.2903  164.4937 C.3     1  UNL1        0.0241
     18 C         141.8254  137.4706  155.2759 C.ar    1  UNL1        0.1370
     19 C         140.7792  138.5149  155.5308 C.ar    1  UNL1        0.0367
     20 C         140.6771  139.1606  156.8809 C.ar    1  UNL1        0.0046
     21 C         141.6213  138.7619  157.9761 C.ar    1  UNL1        0.0177
     22 C         142.6676  137.7177  157.7213 C.ar    1  UNL1        0.0027
     23 C         142.7696  137.0720  156.3713 C.ar    1  UNL1        0.0410
     24 C         143.8158  136.0278  156.1164 C.3     1  UNL1        0.1666
     25 O         144.8819  136.2692  155.0893 O.3     1  UNL1       -0.3771
     26 H         144.4782  136.3129  154.2084 H       1  UNL1        0.2109
     27 C         141.1649  135.5660  153.6371 C.3     1  UNL1        0.2525
     28 O         141.9274  136.8250  153.9259 O.3     1  UNL1       -0.4717
     29 N         138.8386  138.7799  165.2567 N.ar    1  UNL1       -0.2558
     30 C         138.5732  137.3114  165.4092 C.ar    1  UNL1        0.1050
     31 C         137.7041  137.1204  166.6167 C.ar    1  UNL1        0.1197
     32 N         137.4323  138.4708  167.2105 N.ar    1  UNL1       -0.2219
     33 C         138.1335  139.4964  166.3700 C.ar    1  UNL1        0.1851
@<TRIPOS>BOND
     1    27    28    1
     2    28    18    1
     3    18    19   ar
     4    19    20   ar
     5    20    21   ar
     6    21     1    1
     7     1     2   ar
     8     2     3   ar
     9     3     4   ar
    10     4     5   ar
    11     5    11    1
    12    11    12    1
    13    12    13    1
    14    13    14    1
    15    14    15    1
    16    15    16    1
    17    16    17    1
    18     5     6   ar
    19     6     7   ar
    20     7    29    1
    21    29    30   ar
    22    30    31   ar
    23    31    32   ar
    24    32    33   ar
    25     7     8   ar
    26     8     9   ar
    27     9    10   ar
    28    21    22   ar
    29    22    23   ar
    30    23    24    1
    31    24    25    1
    32    23    18   ar
    33    10     1   ar
    34     9     4   ar
    35    16    11    1
    36    33    29   ar
    37    25    26    1
@<TRIPOS>MOLECULE
*****
 33 37 0 0 0
SMALL
GASTEIGER

@<TRIPOS>ATOM
      1 C         143.1824  139.7823  162.0627 C.ar    1  UNL1        0.0829
      2 C         143.5622  140.9985  161.2711 C.ar    1  UNL1        0.0193
      3 C         143.6792  140.9151  159.7780 C.ar    1  UNL1        0.0074
      4 C         143.4164  139.6155  159.0765 C.ar    1  UNL1        0.0676
      5 C         143.5335  139.5322  157.5834 C.ar    1  UNL1        0.1378
      6 N         143.2708  138.2327  156.8819 N.ar    1  UNL1       -0.1960
      7 C         142.8910  137.0164  157.6735 C.ar    1  UNL1        0.2406
      8 N         142.7740  137.0998  159.1666 N.ar    1  UNL1       -0.1919
      9 C         143.0367  138.3993  159.8681 C.ar    1  UNL1        0.1680
     10 N         142.9197  138.4827  161.3612 N.ar    1  UNL1       -0.2264
     11 N         143.9132  140.7484  156.7918 N.pl3   1  UNL1       -0.2897
     12 C         145.3543  141.0160  156.4730 C.3     1  UNL1        0.1242
     13 C         145.7340  142.2323  155.6814 C.3     1  UNL1        0.1636
     14 O         144.6726  143.1809  155.2087 O.3     1  UNL1       -0.3502
     15 C         143.2315  142.9133  155.5274 C.3     1  UNL1        0.1618
     16 C         142.8518  141.6971  156.3190 C.3     1  UNL1        0.1038
     17 C         141.4107  141.4296  156.6378 C.3     1  UNL1        0.0241
     18 C         142.8314  140.0322  166.5421 C.ar    1  UNL1        0.1370
     19 C         142.6653  138.7122  165.8493 C.ar    1  UNL1        0.0367
     20 C         142.7823  138.6289  164.3561 C.ar    1  UNL1        0.0046
     21 C         143.0654  139.8656  163.5558 C.ar    1  UNL1        0.0177
     22 C         143.2314  141.1856  164.2486 C.ar    1  UNL1        0.0027
     23 C         143.1144  141.2690  165.7417 C.ar    1  UNL1        0.0410
     24 C         143.2805  142.5890  166.4345 C.3     1  UNL1        0.1666
     25 O         143.6669  142.6323  167.8832 O.3     1  UNL1       -0.3771
     26 H         142.9519  142.2561  168.4199 H       1  UNL1        0.2109
     27 C         141.3828  139.9133  168.6955 C.3     1  UNL1        0.2525
     28 O         142.7143  140.1156  168.0351 O.3     1  UNL1       -0.4717
     29 N         142.6283  135.7168  156.9720 N.ar    1  UNL1       -0.2558
     30 C         143.2840  134.4025  157.2760 C.ar    1  UNL1        0.1050
     31 C         142.7247  133.3768  156.3352 C.ar    1  UNL1        0.1197
     32 N         141.7233  134.0572  155.4497 N.ar    1  UNL1       -0.2219
     33 C         141.6636  135.5035  155.8432 C.ar    1  UNL1        0.1851
@<TRIPOS>BOND
     1    27    28    1
     2    28    18    1
     3    18    19   ar
     4    19    20   ar
     5    20    21   ar
     6    21     1    1
     7     1     2   ar
     8     2     3   ar
     9     3     4   ar
    10     4     5   ar
    11     5    11    1
    12    11    12    1
    13    12    13    1
    14    13    14    1
    15    14    15    1
    16    15    16    1
    17    16    17    1
    18     5     6   ar
    19     6     7   ar
    20     7    29    1
    21    29    30   ar
    22    30    31   ar
    23    31    32   ar
    24    32    33   ar
    25     7     8   ar
    26     8     9   ar
    27     9    10   ar
    28    21    22   ar
    29    22    23   ar
    30    23    24    1
    31    24    25    1
    32    23    18   ar
    33    10     1   ar
    34     9     4   ar
    35    16    11    1
    36    33    29   ar
    37    25    26    1
