@<TRIPOS>MOLECULE
*****
 20 21 0 0 0
SMALL
GASTEIGER

@<TRIPOS>ATOM
      1 C         139.7680  140.5707  169.4339 C.ar    1  UNL1        0.0287
      2 C         140.9479  141.2748  170.0356 C.ar    1  UNL1        0.0068
      3 C         142.2426  141.3472  169.2817 C.ar    1  UNL1        0.0345
      4 BR        143.4226  142.0514  169.8834 Br      1  UNL1       -0.0490
      5 C         142.3575  140.7155  167.9261 C.ar    1  UNL1        0.0098
      6 C         141.1776  140.0114  167.3244 C.ar    1  UNL1        0.0377
      7 C         139.8829  139.9390  168.0783 C.ar    1  UNL1        0.1426
      8 C         138.4733  140.4983  170.1878 C.3     1  UNL1        0.0987
      9 C         136.5480  139.0120  171.1012 C.3     1  UNL1        0.0861
     10 N         137.6042  139.2814  170.0707 N.3     1  UNL1       -0.2925
     11 H         137.1282  139.3450  169.1708 H       1  UNL1        0.1236
     12 O         138.7030  139.2348  167.4765 O.3     1  UNL1       -0.4537
     13 C         138.5899  139.0996  165.9870 C.ar    1  UNL1        0.1462
     14 C         138.9795  137.8143  165.3188 C.ar    1  UNL1        0.0384
     15 C         138.8664  137.6791  163.8292 C.ar    1  UNL1        0.0154
     16 C         138.3637  138.8291  163.0077 C.ar    1  UNL1        0.0684
     17 CL        138.2506  138.6939  161.5182 Cl      1  UNL1       -0.0814
     18 C         137.9741  140.1143  163.6758 C.ar    1  UNL1        0.0712
     19 CL        137.4714  141.2643  162.8544 Cl      1  UNL1       -0.0813
     20 C         138.0872  140.2496  165.1655 C.ar    1  UNL1        0.0497
@<TRIPOS>BOND
     1     9    10    1
     2    10     8    1
     3     8     1    1
     4     1     2   ar
     5     2     3   ar
     6     3     4    1
     7     3     5   ar
     8     5     6   ar
     9     6     7   ar
    10     7    12    1
    11    12    13    1
    12    13    14   ar
    13    14    15   ar
    14    15    16   ar
    15    16    17    1
    16    16    18   ar
    17    18    19    1
    18    18    20   ar
    19     7     1   ar
    20    20    13   ar
    21    10    11    1
@<TRIPOS>MOLECULE
*****
 20 21 0 0 0
SMALL
GASTEIGER

@<TRIPOS>ATOM
      1 C         138.8913  142.8734  163.9428 C.ar    1  UNL1        0.0287
      2 C         138.7489  144.1264  163.1306 C.ar    1  UNL1        0.0068
      3 C         139.9609  144.9432  162.7931 C.ar    1  UNL1        0.0345
      4 BR        139.8185  146.1963  161.9809 Br      1  UNL1       -0.0490
      5 C         141.3153  144.5071  163.2679 C.ar    1  UNL1        0.0098
      6 C         141.4577  143.2541  164.0801 C.ar    1  UNL1        0.0377
      7 C         140.2457  142.4373  164.4175 C.ar    1  UNL1        0.1426
      8 C         137.6794  142.0565  164.2802 C.3     1  UNL1        0.0987
      9 C         137.5757  140.5725  162.1503 C.3     1  UNL1        0.0861
     10 N         136.8839  141.4077  163.1865 N.3     1  UNL1       -0.2925
     11 H         136.1969  140.8052  163.6398 H       1  UNL1        0.1236
     12 O         140.3882  141.1842  165.2298 O.3     1  UNL1       -0.4537
     13 C         140.4666  141.2649  166.7255 C.ar    1  UNL1        0.1462
     14 C         140.5911  140.0106  167.5388 C.ar    1  UNL1        0.0384
     15 C         140.6695  140.0913  169.0345 C.ar    1  UNL1        0.0154
     16 C         140.6235  141.4262  169.7171 C.ar    1  UNL1        0.0684
     17 CL        140.7019  141.5068  171.2128 Cl      1  UNL1       -0.0814
     18 C         140.4990  142.6804  168.9039 C.ar    1  UNL1        0.0712
     19 CL        140.4530  144.0153  169.5865 Cl      1  UNL1       -0.0813
     20 C         140.4206  142.5998  167.4081 C.ar    1  UNL1        0.0497
@<TRIPOS>BOND
     1     9    10    1
     2    10     8    1
     3     8     1    1
     4     1     2   ar
     5     2     3   ar
     6     3     4    1
     7     3     5   ar
     8     5     6   ar
     9     6     7   ar
    10     7    12    1
    11    12    13    1
    12    13    14   ar
    13    14    15   ar
    14    15    16   ar
    15    16    17    1
    16    16    18   ar
    17    18    19    1
    18    18    20   ar
    19     7     1   ar
    20    20    13   ar
    21    10    11    1
@<TRIPOS>MOLECULE
*****
 20 21 0 0 0
SMALL
GASTEIGER

@<TRIPOS>ATOM
      1 C         142.4867  144.2426  164.2003 C.ar    1  UNL1        0.0287
      2 C         141.9195  145.1544  163.1530 C.ar    1  UNL1        0.0068
      3 C         140.4412  145.1777  162.8998 C.ar    1  UNL1        0.0345
      4 BR        139.8740  146.0896  161.8524 Br      1  UNL1       -0.0490
      5 C         139.5301  144.2893  163.6938 C.ar    1  UNL1        0.0098
      6 C         140.0973  143.3775  164.7411 C.ar    1  UNL1        0.0377
      7 C         141.5756  143.3542  164.9944 C.ar    1  UNL1        0.1426
      8 C         143.9650  144.2192  164.4535 C.3     1  UNL1        0.0987
      9 C         145.0689  142.1212  163.3908 C.3     1  UNL1        0.0861
     10 N         144.6791  142.9091  164.6063 N.3     1  UNL1       -0.2925
     11 H         145.5386  143.1005  165.1212 H       1  UNL1        0.1236
     12 O         142.1428  142.4423  166.0417 O.3     1  UNL1       -0.4537
     13 C         141.2481  141.8662  167.0988 C.ar    1  UNL1        0.1462
     14 C         140.6540  140.5009  166.9162 C.ar    1  UNL1        0.0384
     15 C         139.7593  139.9248  167.9733 C.ar    1  UNL1        0.0154
     16 C         139.4585  140.7138  169.2130 C.ar    1  UNL1        0.0684
     17 CL        138.5638  140.1377  170.2701 Cl      1  UNL1       -0.0814
     18 C         140.0525  142.0790  169.3957 C.ar    1  UNL1        0.0712
     19 CL        139.7518  142.8681  170.6354 Cl      1  UNL1       -0.0813
     20 C         140.9473  142.6552  168.3386 C.ar    1  UNL1        0.0497
@<TRIPOS>BOND
     1     9    10    1
     2    10     8    1
     3     8     1    1
     4     1     2   ar
     5     2     3   ar
     6     3     4    1
     7     3     5   ar
     8     5     6   ar
     9     6     7   ar
    10     7    12    1
    11    12    13    1
    12    13    14   ar
    13    14    15   ar
    14    15    16   ar
    15    16    17    1
    16    16    18   ar
    17    18    19    1
    18    18    20   ar
    19     7     1   ar
    20    20    13   ar
    21    10    11    1
@<TRIPOS>MOLECULE
*****
 20 21 0 0 0
SMALL
GASTEIGER

@<TRIPOS>ATOM
      1 C         141.7078  139.4782  166.8598 C.ar    1  UNL1        0.0287
      2 C         142.5787  139.6099  168.0739 C.ar    1  UNL1        0.0068
      3 C         141.9661  139.9293  169.4053 C.ar    1  UNL1        0.0345
      4 BR        142.8371  140.0609  170.6195 Br      1  UNL1       -0.0490
      5 C         140.4825  140.1170  169.5227 C.ar    1  UNL1        0.0098
      6 C         139.6116  139.9853  168.3086 C.ar    1  UNL1        0.0377
      7 C         140.2242  139.6659  166.9771 C.ar    1  UNL1        0.1426
      8 C         142.3204  139.1588  165.5284 C.3     1  UNL1        0.0987
      9 C         141.6828  137.9985  163.2930 C.3     1  UNL1        0.0861
     10 N         141.8869  137.9347  164.7777 N.3     1  UNL1       -0.2925
     11 H         142.5942  137.2195  164.9472 H       1  UNL1        0.1236
     12 O         139.3532  139.5343  165.7630 O.3     1  UNL1       -0.4537
     13 C         138.8952  140.7613  165.0319 C.ar    1  UNL1        0.1462
     14 C         137.9483  140.6356  163.8753 C.ar    1  UNL1        0.0384
     15 C         137.4903  141.8627  163.1442 C.ar    1  UNL1        0.0154
     16 C         137.9793  143.2154  163.5696 C.ar    1  UNL1        0.0684
     17 CL        137.5213  144.4425  162.8384 Cl      1  UNL1       -0.0814
     18 C         138.9262  143.3412  164.7260 C.ar    1  UNL1        0.0712
     19 CL        139.4151  144.6939  165.1514 Cl      1  UNL1       -0.0813
     20 C         139.3842  142.1141  165.4572 C.ar    1  UNL1        0.0497
@<TRIPOS>BOND
     1     9    10    1
     2    10     8    1
     3     8     1    1
     4     1     2   ar
     5     2     3   ar
     6     3     4    1
     7     3     5   ar
     8     5     6   ar
     9     6     7   ar
    10     7    12    1
    11    12    13    1
    12    13    14   ar
    13    14    15   ar
    14    15    16   ar
    15    16    17    1
    16    16    18   ar
    17    18    19    1
    18    18    20   ar
    19     7     1   ar
    20    20    13   ar
    21    10    11    1
@<TRIPOS>MOLECULE
*****
 20 21 0 0 0
SMALL
GASTEIGER

@<TRIPOS>ATOM
      1 C         141.8159  138.2794  163.1818 C.ar    1  UNL1        0.0287
      2 C         140.6546  138.1923  162.2365 C.ar    1  UNL1        0.0068
      3 C         139.2522  138.1982  162.7688 C.ar    1  UNL1        0.0345
      4 BR        138.0908  138.1111  161.8234 Br      1  UNL1       -0.0490
      5 C         139.0112  138.2912  164.2463 C.ar    1  UNL1        0.0098
      6 C         140.1725  138.3783  165.1916 C.ar    1  UNL1        0.0377
      7 C         141.5749  138.3724  164.6593 C.ar    1  UNL1        0.1426
      8 C         143.2183  138.2735  162.6495 C.3     1  UNL1        0.0987
      9 C         144.0060  140.7491  162.6819 C.3     1  UNL1        0.0861
     10 N         144.1949  139.3202  163.0974 N.3     1  UNL1       -0.2925
     11 H         144.1931  139.3074  164.1173 H       1  UNL1        0.1236
     12 O         142.7363  138.4595  165.6047 O.3     1  UNL1       -0.4537
     13 C         142.7838  139.5475  166.6362 C.ar    1  UNL1        0.1462
     14 C         142.8611  140.9833  166.2089 C.ar    1  UNL1        0.0384
     15 C         142.9085  142.0713  167.2404 C.ar    1  UNL1        0.0154
     16 C         142.8787  141.7235  168.6992 C.ar    1  UNL1        0.0684
     17 CL        142.9262  142.8115  169.7307 Cl      1  UNL1       -0.0814
     18 C         142.8014  140.2878  169.1265 C.ar    1  UNL1        0.0712
     19 CL        142.7716  139.9400  170.5854 Cl      1  UNL1       -0.0813
     20 C         142.7540  139.1997  168.0950 C.ar    1  UNL1        0.0497
@<TRIPOS>BOND
     1     9    10    1
     2    10     8    1
     3     8     1    1
     4     1     2   ar
     5     2     3   ar
     6     3     4    1
     7     3     5   ar
     8     5     6   ar
     9     6     7   ar
    10     7    12    1
    11    12    13    1
    12    13    14   ar
    13    14    15   ar
    14    15    16   ar
    15    16    17    1
    16    16    18   ar
    17    18    19    1
    18    18    20   ar
    19     7     1   ar
    20    20    13   ar
    21    10    11    1
@<TRIPOS>MOLECULE
*****
 20 21 0 0 0
SMALL
GASTEIGER

@<TRIPOS>ATOM
      1 C         143.2084  141.3139  166.4803 C.ar    1  UNL1        0.0287
      2 C         143.1898  142.2838  167.6243 C.ar    1  UNL1        0.0068
      3 C         142.8411  141.8097  169.0040 C.ar    1  UNL1        0.0345
      4 BR        142.8225  142.7798  170.1480 Br      1  UNL1       -0.0490
      5 C         142.5110  140.3656  169.2397 C.ar    1  UNL1        0.0098
      6 C         142.5296  139.3957  168.0957 C.ar    1  UNL1        0.0377
      7 C         142.8783  139.8698  166.7160 C.ar    1  UNL1        0.1426
      8 C         143.5571  141.7880  165.1006 C.3     1  UNL1        0.0987
      9 C         145.7278  141.6357  163.6812 C.3     1  UNL1        0.0861
     10 N         144.4988  140.9896  164.2488 N.3     1  UNL1       -0.2925
     11 H         144.8150  140.2035  164.8167 H       1  UNL1        0.1236
     12 O         142.8969  138.8997  165.5720 O.3     1  UNL1       -0.4537
     13 C         141.6741  138.7186  164.7224 C.ar    1  UNL1        0.1462
     14 C         141.6757  137.7115  163.6106 C.ar    1  UNL1        0.0384
     15 C         140.4529  137.5303  162.7610 C.ar    1  UNL1        0.0154
     16 C         139.2285  138.3562  163.0230 C.ar    1  UNL1        0.0684
     17 CL        138.0057  138.1750  162.1734 Cl      1  UNL1       -0.0814
     18 C         139.2268  139.3632  164.1347 C.ar    1  UNL1        0.0712
     19 CL        138.0023  140.1890  164.3968 Cl      1  UNL1       -0.0813
     20 C         140.4496  139.5444  164.9844 C.ar    1  UNL1        0.0497
@<TRIPOS>BOND
     1     9    10    1
     2    10     8    1
     3     8     1    1
     4     1     2   ar
     5     2     3   ar
     6     3     4    1
     7     3     5   ar
     8     5     6   ar
     9     6     7   ar
    10     7    12    1
    11    12    13    1
    12    13    14   ar
    13    14    15   ar
    14    15    16   ar
    15    16    17    1
    16    16    18   ar
    17    18    19    1
    18    18    20   ar
    19     7     1   ar
    20    20    13   ar
    21    10    11    1
@<TRIPOS>MOLECULE
*****
 20 21 0 0 0
SMALL
GASTEIGER

@<TRIPOS>ATOM
      1 C         138.5209  139.4486  163.1896 C.ar    1  UNL1        0.0287
      2 C         138.5586  140.1468  161.8626 C.ar    1  UNL1        0.0068
      3 C         138.3291  141.6273  161.7873 C.ar    1  UNL1        0.0345
      4 BR        138.3667  142.3255  160.4602 Br      1  UNL1       -0.0490
      5 C         138.0619  142.4095  163.0390 C.ar    1  UNL1        0.0098
      6 C         138.0242  141.7112  164.3660 C.ar    1  UNL1        0.0377
      7 C         138.2537  140.2308  164.4413 C.ar    1  UNL1        0.1426
      8 C         138.7504  137.9682  163.2649 C.3     1  UNL1        0.0987
      9 C         141.2671  137.5438  162.7794 C.3     1  UNL1        0.0861
     10 N         139.8234  137.3322  162.4318 N.3     1  UNL1       -0.2925
     11 H         139.6587  136.3259  162.4577 H       1  UNL1        0.1236
     12 O         138.2161  139.5325  165.7684 O.3     1  UNL1       -0.4537
     13 C         139.3701  139.6632  166.7176 C.ar    1  UNL1        0.1462
     14 C         140.7769  139.5747  166.2047 C.ar    1  UNL1        0.0384
     15 C         141.9309  139.7054  167.1540 C.ar    1  UNL1        0.0154
     16 C         141.6782  139.9246  168.6162 C.ar    1  UNL1        0.0684
     17 CL        142.8322  140.0553  169.5654 Cl      1  UNL1       -0.0814
     18 C         140.2714  140.0132  169.1291 C.ar    1  UNL1        0.0712
     19 CL        140.0187  140.2324  170.5913 Cl      1  UNL1       -0.0813
     20 C         139.1173  139.8825  168.1798 C.ar    1  UNL1        0.0497
@<TRIPOS>BOND
     1     9    10    1
     2    10     8    1
     3     8     1    1
     4     1     2   ar
     5     2     3   ar
     6     3     4    1
     7     3     5   ar
     8     5     6   ar
     9     6     7   ar
    10     7    12    1
    11    12    13    1
    12    13    14   ar
    13    14    15   ar
    14    15    16   ar
    15    16    17    1
    16    16    18   ar
    17    18    19    1
    18    18    20   ar
    19     7     1   ar
    20    20    13   ar
    21    10    11    1
@<TRIPOS>MOLECULE
*****
 20 21 0 0 0
SMALL
GASTEIGER

@<TRIPOS>ATOM
      1 C         139.0736  139.8574  166.6947 C.ar    1  UNL1        0.0287
      2 C         139.2603  139.7925  168.1816 C.ar    1  UNL1        0.0068
      3 C         139.9750  140.9004  168.8969 C.ar    1  UNL1        0.0345
      4 BR        140.1616  140.8354  170.3839 Br      1  UNL1       -0.0490
      5 C         140.5030  142.0734  168.1253 C.ar    1  UNL1        0.0098
      6 C         140.3163  142.1383  166.6384 C.ar    1  UNL1        0.0377
      7 C         139.6016  141.0304  165.9231 C.ar    1  UNL1        0.1426
      8 C         138.3590  138.7495  165.9794 C.3     1  UNL1        0.0987
      9 C         138.8824  137.7834  163.6251 C.3     1  UNL1        0.0861
     10 N         139.1270  137.8033  165.1049 N.3     1  UNL1       -0.2925
     11 H         140.1156  138.0168  165.2370 H       1  UNL1        0.1236
     12 O         139.4150  141.0954  164.4361 O.3     1  UNL1       -0.4537
     13 C         139.4526  142.4196  163.7327 C.ar    1  UNL1        0.1462
     14 C         138.2428  143.3065  163.7384 C.ar    1  UNL1        0.0384
     15 C         138.2804  144.6308  163.0350 C.ar    1  UNL1        0.0154
     16 C         139.5277  145.0683  162.3259 C.ar    1  UNL1        0.0684
     17 CL        139.5652  146.3926  161.6225 Cl      1  UNL1       -0.0814
     18 C         140.7374  144.1815  162.3202 C.ar    1  UNL1        0.0712
     19 CL        141.9847  144.6190  161.6111 Cl      1  UNL1       -0.0813
     20 C         140.6999  142.8571  163.0236 C.ar    1  UNL1        0.0497
@<TRIPOS>BOND
     1     9    10    1
     2    10     8    1
     3     8     1    1
     4     1     2   ar
     5     2     3   ar
     6     3     4    1
     7     3     5   ar
     8     5     6   ar
     9     6     7   ar
    10     7    12    1
    11    12    13    1
    12    13    14   ar
    13    14    15   ar
    14    15    16   ar
    15    16    17    1
    16    16    18   ar
    17    18    19    1
    18    18    20   ar
    19     7     1   ar
    20    20    13   ar
    21    10    11    1
@<TRIPOS>MOLECULE
*****
 20 21 0 0 0
SMALL
GASTEIGER

@<TRIPOS>ATOM
      1 C         140.4548  140.3794  166.6714 C.ar    1  UNL1        0.0287
      2 C         139.6341  139.8764  167.8218 C.ar    1  UNL1        0.0068
      3 C         139.5179  140.6937  169.0742 C.ar    1  UNL1        0.0345
      4 BR        138.6972  140.1906  170.2247 Br      1  UNL1       -0.0490
      5 C         140.2223  142.0140  169.1762 C.ar    1  UNL1        0.0098
      6 C         141.0430  142.5171  168.0258 C.ar    1  UNL1        0.0377
      7 C         141.1592  141.6998  166.7734 C.ar    1  UNL1        0.1426
      8 C         140.5710  139.5621  165.4190 C.3     1  UNL1        0.0987
      9 C         142.9418  138.5248  165.6499 C.3     1  UNL1        0.0861
     10 N         141.9223  139.2677  164.8383 N.3     1  UNL1       -0.2925
     11 H         141.7660  138.7220  163.9908 H       1  UNL1        0.1236
     12 O         141.9799  142.2029  165.6230 O.3     1  UNL1       -0.4537
     13 C         141.4157  143.2375  164.6950 C.ar    1  UNL1        0.1462
     14 C         142.3248  144.2390  164.0466 C.ar    1  UNL1        0.0384
     15 C         141.7606  145.2737  163.1186 C.ar    1  UNL1        0.0154
     16 C         140.2873  145.3069  162.8391 C.ar    1  UNL1        0.0684
     17 CL        139.7230  146.3415  161.9111 Cl      1  UNL1       -0.0814
     18 C         139.3781  144.3054  163.4875 C.ar    1  UNL1        0.0712
     19 CL        137.9048  144.3386  163.2080 Cl      1  UNL1       -0.0813
     20 C         139.9423  143.2707  164.4155 C.ar    1  UNL1        0.0497
@<TRIPOS>BOND
     1     9    10    1
     2    10     8    1
     3     8     1    1
     4     1     2   ar
     5     2     3   ar
     6     3     4    1
     7     3     5   ar
     8     5     6   ar
     9     6     7   ar
    10     7    12    1
    11    12    13    1
    12    13    14   ar
    13    14    15   ar
    14    15    16   ar
    15    16    17    1
    16    16    18   ar
    17    18    19    1
    18    18    20   ar
    19     7     1   ar
    20    20    13   ar
    21    10    11    1
