@<TRIPOS>MOLECULE
*****
 33 37 0 0 0
SMALL
GASTEIGER

@<TRIPOS>ATOM
      1 O         140.9718  136.9166  162.8026 O.2     1  UNL1       -0.2668
      2 C         140.5818  138.3501  163.0100 C.2     1  UNL1        0.2806
      3 N         140.5103  139.2849  161.8391 N.am    1  UNL1       -0.2999
      4 H         140.2543  140.2257  161.9753 H       1  UNL1        0.1498
      5 C         140.2634  138.8489  164.3885 C.ar    1  UNL1        0.2014
      6 C         138.9697  138.4665  165.0441 C.ar    1  UNL1        0.0843
      7 C         138.6514  138.9652  166.4225 C.ar    1  UNL1        0.2018
      8 O         137.3576  138.5829  167.0782 O.2     1  UNL1       -0.2864
      9 C         139.6268  139.8463  167.1452 C.ar    1  UNL1        0.0744
     10 C         139.3084  140.3450  168.5236 C.ar    1  UNL1        0.0185
     11 C         140.2838  141.2261  169.2463 C.ar    1  UNL1        0.0685
     12 CL        139.9655  141.7248  170.6246 Cl      1  UNL1       -0.0814
     13 C         141.5776  141.6085  168.5905 C.ar    1  UNL1        0.0712
     14 CL        142.5531  142.4895  169.3132 Cl      1  UNL1       -0.0813
     15 C         141.8960  141.1097  167.2122 C.ar    1  UNL1        0.0498
     16 C         140.9205  140.2287  166.4895 C.ar    1  UNL1        0.1494
     17 O         141.2389  139.7299  165.1111 O.2     1  UNL1       -0.4487
     18 C         140.8287  138.7862  160.4607 C.3     1  UNL1        0.0747
     19 C         142.2491  138.4921  160.0790 C.3     1  UNL1        0.0369
     20 C         142.5675  137.9934  158.7007 C.3     1  UNL1        0.0741
     21 N         141.4653  137.7888  157.7040 N.3     1  UNL1       -0.2688
     22 C         140.0448  138.0828  158.0857 C.3     1  UNL1        0.0741
     23 C         139.7265  138.5815  159.4640 C.3     1  UNL1        0.0369
     24 C         141.7837  137.2901  156.3256 C.3     1  UNL1        0.0992
     25 C         142.0584  135.8328  156.1001 C.ar    1  UNL1       -0.0029
     26 C         141.1571  135.0284  155.2110 C.ar    1  UNL1        0.0004
     27 C         141.4318  133.5712  154.9855 C.ar    1  UNL1        0.0399
     28 C         142.6079  132.9182  155.6492 C.ar    1  UNL1        0.1764
     29 C         143.5093  133.7226  156.5383 C.ar    1  UNL1        0.1762
     30 C         143.2345  135.1799  156.7638 C.ar    1  UNL1        0.0373
     31 O         144.5845  132.8124  157.0537 O.3     1  UNL1       -0.4346
     32 C         144.3476  131.4456  156.4831 C.3     1  UNL1        0.4294
     33 O         143.1261  131.5109  155.6150 O.3     1  UNL1       -0.4346
@<TRIPOS>BOND
     1     1     2    2
     2     2     3   am
     3     3    18    1
     4    18    19    1
     5    19    20    1
     6    20    21    1
     7    21    24    1
     8    24    25    1
     9    25    26   ar
    10    26    27   ar
    11    27    28   ar
    12    28    29   ar
    13    29    30   ar
    14    29    31    1
    15    31    32    1
    16    32    33    1
    17    21    22    1
    18    22    23    1
    19     2     5    1
    20     5     6   ar
    21     6     7   ar
    22     7     8    2
    23     7     9   ar
    24     9    10   ar
    25    10    11   ar
    26    11    12    1
    27    11    13   ar
    28    13    14    1
    29    13    15   ar
    30    15    16   ar
    31    16    17   ar
    32    23    18    1
    33    17     5   ar
    34    30    25   ar
    35    16     9   ar
    36    33    28    1
    37     3     4    1
@<TRIPOS>MOLECULE
*****
 33 37 0 0 0
SMALL
GASTEIGER

@<TRIPOS>ATOM
      1 O         143.0811  139.2006  158.2777 O.2     1  UNL1       -0.2668
      2 C         142.7566  137.7913  158.6760 C.2     1  UNL1        0.2806
      3 N         142.6227  137.4339  160.1266 N.am    1  UNL1       -0.2999
      4 H         142.4097  136.5089  160.3881 H       1  UNL1        0.1498
      5 C         142.5661  136.7394  157.6237 C.ar    1  UNL1        0.2014
      6 C         141.5216  136.9207  156.5625 C.ar    1  UNL1        0.0843
      7 C         141.3312  135.8689  155.5103 C.ar    1  UNL1        0.2018
      8 O         140.2867  136.0501  154.4490 O.2     1  UNL1       -0.2864
      9 C         142.1852  134.6357  155.5192 C.ar    1  UNL1        0.0744
     10 C         141.9947  133.5839  154.4669 C.ar    1  UNL1        0.0185
     11 C         142.8487  132.3507  154.4758 C.ar    1  UNL1        0.0685
     12 CL        142.6582  131.2989  153.4235 Cl      1  UNL1       -0.0814
     13 C         143.8932  132.1695  155.5371 C.ar    1  UNL1        0.0712
     14 CL        144.7472  130.9364  155.5460 Cl      1  UNL1       -0.0813
     15 C         144.0837  133.2214  156.5893 C.ar    1  UNL1        0.0498
     16 C         143.2297  134.4545  156.5804 C.ar    1  UNL1        0.1494
     17 O         143.4201  135.5063  157.6326 O.2     1  UNL1       -0.4487
     18 C         142.8132  138.4858  161.1790 C.3     1  UNL1        0.0747
     19 C         144.1698  138.7100  161.7783 C.3     1  UNL1        0.0369
     20 C         144.3602  139.7618  162.8306 C.3     1  UNL1        0.0741
     21 N         143.1941  140.5894  163.2835 N.3     1  UNL1       -0.2688
     22 C         141.8375  140.3652  162.6842 C.3     1  UNL1        0.0741
     23 C         141.6470  139.3134  161.6319 C.3     1  UNL1        0.0369
     24 C         143.3846  141.6413  164.3359 C.3     1  UNL1        0.0992
     25 C         143.1341  141.3135  165.7780 C.ar    1  UNL1       -0.0029
     26 C         142.8532  139.8981  166.1875 C.ar    1  UNL1        0.0004
     27 C         142.6027  139.5702  167.6296 C.ar    1  UNL1        0.0399
     28 C         142.6332  140.6578  168.6623 C.ar    1  UNL1        0.1764
     29 C         142.9141  142.0732  168.2528 C.ar    1  UNL1        0.1762
     30 C         143.1646  142.4010  166.8105 C.ar    1  UNL1        0.0373
     31 O         142.8801  142.9278  169.4851 O.3     1  UNL1       -0.4346
     32 C         142.5782  142.0405  170.6562 C.3     1  UNL1        0.4294
     33 O         142.4256  140.6376  170.1477 O.3     1  UNL1       -0.4346
@<TRIPOS>BOND
     1     1     2    2
     2     2     3   am
     3     3    18    1
     4    18    19    1
     5    19    20    1
     6    20    21    1
     7    21    24    1
     8    24    25    1
     9    25    26   ar
    10    26    27   ar
    11    27    28   ar
    12    28    29   ar
    13    29    30   ar
    14    29    31    1
    15    31    32    1
    16    32    33    1
    17    21    22    1
    18    22    23    1
    19     2     5    1
    20     5     6   ar
    21     6     7   ar
    22     7     8    2
    23     7     9   ar
    24     9    10   ar
    25    10    11   ar
    26    11    12    1
    27    11    13   ar
    28    13    14    1
    29    13    15   ar
    30    15    16   ar
    31    16    17   ar
    32    23    18    1
    33    17     5   ar
    34    30    25   ar
    35    16     9   ar
    36    33    28    1
    37     3     4    1
@<TRIPOS>MOLECULE
*****
 33 37 0 0 0
SMALL
GASTEIGER

@<TRIPOS>ATOM
      1 O         138.1527  144.0458  161.7126 O.2     1  UNL1       -0.2668
      2 C         139.2709  143.0713  161.9357 C.2     1  UNL1        0.2806
      3 N         140.3019  142.8553  160.8678 N.am    1  UNL1       -0.2999
      4 H         141.0358  142.2157  161.0142 H       1  UNL1        0.1498
      5 C         139.3582  142.3126  163.2268 C.ar    1  UNL1        0.2014
      6 C         138.9717  140.8640  163.2731 C.ar    1  UNL1        0.0843
      7 C         139.0590  140.1055  164.5642 C.ar    1  UNL1        0.2018
      8 O         138.6725  138.6568  164.6106 O.2     1  UNL1       -0.2864
      9 C         139.5329  140.7954  165.8089 C.ar    1  UNL1        0.0744
     10 C         139.6202  140.0368  167.1001 C.ar    1  UNL1        0.0185
     11 C         140.0940  140.7268  168.3448 C.ar    1  UNL1        0.0685
     12 CL        140.1813  139.9682  169.6359 Cl      1  UNL1       -0.0814
     13 C         140.4805  142.1754  168.2984 C.ar    1  UNL1        0.0712
     14 CL        140.9544  142.8654  169.5432 Cl      1  UNL1       -0.0813
     15 C         140.3932  142.9340  167.0074 C.ar    1  UNL1        0.0498
     16 C         139.9194  142.2440  165.7626 C.ar    1  UNL1        0.1494
     17 O         139.8321  143.0026  164.4716 O.2     1  UNL1       -0.4487
     18 C         140.2146  143.6140  159.5766 C.3     1  UNL1        0.0747
     19 C         140.9054  144.9380  159.4365 C.3     1  UNL1        0.0369
     20 C         140.8181  145.6966  158.1455 C.3     1  UNL1        0.0741
     21 N         140.0399  145.1312  156.9945 N.3     1  UNL1       -0.2688
     22 C         139.3490  143.8072  157.1346 C.3     1  UNL1        0.0741
     23 C         139.4363  143.0486  158.4257 C.3     1  UNL1        0.0369
     24 C         139.9526  145.8898  155.7034 C.3     1  UNL1        0.0992
     25 C         139.5260  147.3279  155.7059 C.ar    1  UNL1       -0.0029
     26 C         138.7935  147.8909  156.8876 C.ar    1  UNL1        0.0004
     27 C         138.3669  149.3289  156.8900 C.ar    1  UNL1        0.0399
     28 C         138.6729  150.2040  155.7108 C.ar    1  UNL1        0.1764
     29 C         139.4055  149.6410  154.5291 C.ar    1  UNL1        0.1762
     30 C         139.8320  148.2029  154.5267 C.ar    1  UNL1        0.0373
     31 O         139.5656  150.7372  153.5177 O.3     1  UNL1       -0.4346
     32 C         138.9321  151.9776  154.0744 C.3     1  UNL1        0.4294
     33 O         138.3804  151.6481  155.4297 O.3     1  UNL1       -0.4346
@<TRIPOS>BOND
     1     1     2    2
     2     2     3   am
     3     3    18    1
     4    18    19    1
     5    19    20    1
     6    20    21    1
     7    21    24    1
     8    24    25    1
     9    25    26   ar
    10    26    27   ar
    11    27    28   ar
    12    28    29   ar
    13    29    30   ar
    14    29    31    1
    15    31    32    1
    16    32    33    1
    17    21    22    1
    18    22    23    1
    19     2     5    1
    20     5     6   ar
    21     6     7   ar
    22     7     8    2
    23     7     9   ar
    24     9    10   ar
    25    10    11   ar
    26    11    12    1
    27    11    13   ar
    28    13    14    1
    29    13    15   ar
    30    15    16   ar
    31    16    17   ar
    32    23    18    1
    33    17     5   ar
    34    30    25   ar
    35    16     9   ar
    36    33    28    1
    37     3     4    1
@<TRIPOS>MOLECULE
*****
 33 37 0 0 0
SMALL
GASTEIGER

@<TRIPOS>ATOM
      1 O         140.1261  145.3093  161.3241 O.2     1  UNL1       -0.2668
      2 C         141.2661  144.3345  161.3333 C.2     1  UNL1        0.2806
      3 N         141.8660  143.8697  160.0395 N.am    1  UNL1       -0.2999
      4 H         142.6143  143.2299  160.0456 H       1  UNL1        0.1498
      5 C         141.8061  143.8244  162.6365 C.ar    1  UNL1        0.2014
      6 C         143.2596  143.4754  162.7609 C.ar    1  UNL1        0.0843
      7 C         143.7996  142.9653  164.0640 C.ar    1  UNL1        0.2018
      8 O         145.2532  142.6163  164.1885 O.2     1  UNL1       -0.2864
      9 C         142.8861  142.8042  165.2428 C.ar    1  UNL1        0.0744
     10 C         143.4261  142.2942  166.5460 C.ar    1  UNL1        0.0185
     11 C         142.5126  142.1331  167.7248 C.ar    1  UNL1        0.0685
     12 CL        143.0525  141.6230  169.0279 Cl      1  UNL1       -0.0814
     13 C         141.0590  142.4821  167.6004 C.ar    1  UNL1        0.0712
     14 CL        140.1455  142.3210  168.7791 Cl      1  UNL1       -0.0813
     15 C         140.5190  142.9921  166.2972 C.ar    1  UNL1        0.0498
     16 C         141.4326  143.1532  165.1184 C.ar    1  UNL1        0.1494
     17 O         140.8926  143.6633  163.8153 O.2     1  UNL1       -0.4487
     18 C         141.3260  144.3798  158.7363 C.3     1  UNL1        0.0747
     19 C         140.0812  143.7790  158.1537 C.3     1  UNL1        0.0369
     20 C         139.5412  144.2891  156.8506 C.3     1  UNL1        0.0741
     21 N         140.2461  145.4000  156.1301 N.3     1  UNL1       -0.2688
     22 C         141.4909  146.0008  156.7127 C.3     1  UNL1        0.0741
     23 C         142.0308  145.4907  158.0158 C.3     1  UNL1        0.0369
     24 C         139.7060  145.9101  154.8269 C.3     1  UNL1        0.0992
     25 C         139.6901  147.3836  154.5470 C.ar    1  UNL1       -0.0029
     26 C         140.5072  147.9418  153.4197 C.ar    1  UNL1        0.0004
     27 C         140.4912  149.4153  153.1398 C.ar    1  UNL1        0.0399
     28 C         139.6581  150.3307  153.9872 C.ar    1  UNL1        0.1764
     29 C         138.8410  149.7726  155.1144 C.ar    1  UNL1        0.1762
     30 C         138.8570  148.2989  155.3943 C.ar    1  UNL1        0.0373
     31 O         138.1223  150.9118  155.7744 O.3     1  UNL1       -0.4346
     32 C         138.4952  152.1741  155.0550 C.3     1  UNL1        0.4294
     33 O         139.4444  151.8150  153.9504 O.3     1  UNL1       -0.4346
@<TRIPOS>BOND
     1     1     2    2
     2     2     3   am
     3     3    18    1
     4    18    19    1
     5    19    20    1
     6    20    21    1
     7    21    24    1
     8    24    25    1
     9    25    26   ar
    10    26    27   ar
    11    27    28   ar
    12    28    29   ar
    13    29    30   ar
    14    29    31    1
    15    31    32    1
    16    32    33    1
    17    21    22    1
    18    22    23    1
    19     2     5    1
    20     5     6   ar
    21     6     7   ar
    22     7     8    2
    23     7     9   ar
    24     9    10   ar
    25    10    11   ar
    26    11    12    1
    27    11    13   ar
    28    13    14    1
    29    13    15   ar
    30    15    16   ar
    31    16    17   ar
    32    23    18    1
    33    17     5   ar
    34    30    25   ar
    35    16     9   ar
    36    33    28    1
    37     3     4    1
@<TRIPOS>MOLECULE
*****
 33 37 0 0 0
SMALL
GASTEIGER

@<TRIPOS>ATOM
      1 O         140.8532  139.9056  162.5433 O.2     1  UNL1       -0.2668
      2 C         142.1281  139.6474  163.2903 C.2     1  UNL1        0.2806
      3 N         143.3496  139.1862  162.5521 N.am    1  UNL1       -0.2999
      4 H         144.1864  139.0168  163.0424 H       1  UNL1        0.1498
      5 C         142.1813  139.8505  164.7756 C.ar    1  UNL1        0.2014
      6 C         142.8794  138.8473  165.6452 C.ar    1  UNL1        0.0843
      7 C         142.9327  139.0504  167.1304 C.ar    1  UNL1        0.2018
      8 O         143.6308  138.0472  168.0001 O.2     1  UNL1       -0.2864
      9 C         142.2878  140.2567  167.7460 C.ar    1  UNL1        0.0744
     10 C         142.3411  140.4598  169.2313 C.ar    1  UNL1        0.0185
     11 C         141.6962  141.6661  169.8469 C.ar    1  UNL1        0.0685
     12 CL        141.7494  141.8692  171.3321 Cl      1  UNL1       -0.0814
     13 C         140.9981  142.6693  168.9773 C.ar    1  UNL1        0.0712
     14 CL        140.3532  143.8756  169.5929 Cl      1  UNL1       -0.0813
     15 C         140.9448  142.4662  167.4921 C.ar    1  UNL1        0.0498
     16 C         141.5897  141.2599  166.8764 C.ar    1  UNL1        0.1494
     17 O         141.5365  141.0568  165.3912 O.2     1  UNL1       -0.4487
     18 C         143.2964  138.9831  161.0668 C.3     1  UNL1        0.0747
     19 C         142.7696  137.6963  160.5042 C.3     1  UNL1        0.0369
     20 C         142.7164  137.4933  159.0190 C.3     1  UNL1        0.0741
     21 N         143.1899  138.5771  158.0964 N.3     1  UNL1       -0.2688
     22 C         143.7166  139.8639  158.6590 C.3     1  UNL1        0.0741
     23 C         143.7698  140.0670  160.1442 C.3     1  UNL1        0.0369
     24 C         143.1366  138.3740  156.6111 C.3     1  UNL1        0.0992
     25 C         142.6892  137.0570  156.0498 C.ar    1  UNL1       -0.0029
     26 C         141.3084  136.9141  155.4815 C.ar    1  UNL1        0.0004
     27 C         140.8609  135.5970  154.9202 C.ar    1  UNL1        0.0399
     28 C         141.7943  134.4228  154.9271 C.ar    1  UNL1        0.1764
     29 C         143.1752  134.5657  155.4954 C.ar    1  UNL1        0.1762
     30 C         143.6226  135.8828  156.0567 C.ar    1  UNL1        0.0373
     31 O         143.8687  133.2419  155.3665 O.3     1  UNL1       -0.4346
     32 C         142.9165  132.2809  154.7187 C.3     1  UNL1        0.4294
     33 O         141.6345  133.0107  154.4471 O.3     1  UNL1       -0.4346
@<TRIPOS>BOND
     1     1     2    2
     2     2     3   am
     3     3    18    1
     4    18    19    1
     5    19    20    1
     6    20    21    1
     7    21    24    1
     8    24    25    1
     9    25    26   ar
    10    26    27   ar
    11    27    28   ar
    12    28    29   ar
    13    29    30   ar
    14    29    31    1
    15    31    32    1
    16    32    33    1
    17    21    22    1
    18    22    23    1
    19     2     5    1
    20     5     6   ar
    21     6     7   ar
    22     7     8    2
    23     7     9   ar
    24     9    10   ar
    25    10    11   ar
    26    11    12    1
    27    11    13   ar
    28    13    14    1
    29    13    15   ar
    30    15    16   ar
    31    16    17   ar
    32    23    18    1
    33    17     5   ar
    34    30    25   ar
    35    16     9   ar
    36    33    28    1
    37     3     4    1
@<TRIPOS>MOLECULE
*****
 33 37 0 0 0
SMALL
GASTEIGER

@<TRIPOS>ATOM
      1 O         141.7438  138.1021  162.4073 O.2     1  UNL1       -0.2668
      2 C         141.2564  139.5168  162.3024 C.2     1  UNL1        0.2806
      3 N         140.9950  140.1221  160.9551 N.am    1  UNL1       -0.2999
      4 H         140.6751  141.0506  160.8863 H       1  UNL1        0.1498
      5 C         141.0303  140.3263  163.5449 C.ar    1  UNL1        0.2014
      6 C         139.8870  141.2950  163.6113 C.ar    1  UNL1        0.0843
      7 C         139.6610  142.1044  164.8538 C.ar    1  UNL1        0.2018
      8 O         138.5176  143.0731  164.9202 O.2     1  UNL1       -0.2864
      9 C         140.5783  141.9451  166.0298 C.ar    1  UNL1        0.0744
     10 C         140.3523  142.7546  167.2723 C.ar    1  UNL1        0.0185
     11 C         141.2696  142.5953  168.4484 C.ar    1  UNL1        0.0685
     12 CL        141.0436  143.4047  169.6909 Cl      1  UNL1       -0.0814
     13 C         142.4129  141.6265  168.3820 C.ar    1  UNL1        0.0712
     14 CL        143.3303  141.4673  169.5581 Cl      1  UNL1       -0.0813
     15 C         142.6389  140.8171  167.1395 C.ar    1  UNL1        0.0498
     16 C         141.7216  140.9764  165.9635 C.ar    1  UNL1        0.1494
     17 O         141.9476  140.1670  164.7210 O.2     1  UNL1       -0.4487
     18 C         141.2210  139.3126  159.7126 C.3     1  UNL1        0.0747
     19 C         140.0576  138.6825  159.0060 C.3     1  UNL1        0.0369
     20 C         140.2837  137.8731  157.7635 C.3     1  UNL1        0.0741
     21 N         141.6732  137.6938  157.2277 N.3     1  UNL1       -0.2688
     22 C         142.8366  138.3239  157.9344 C.3     1  UNL1        0.0741
     23 C         142.6106  139.1333  159.1768 C.3     1  UNL1        0.0369
     24 C         141.8993  136.8843  155.9852 C.3     1  UNL1        0.0992
     25 C         142.1035  135.4015  156.0829 C.ar    1  UNL1       -0.0029
     26 C         143.1457  134.8474  157.0084 C.ar    1  UNL1        0.0004
     27 C         143.3500  133.3646  157.1061 C.ar    1  UNL1        0.0399
     28 C         142.5119  132.4359  156.2783 C.ar    1  UNL1        0.1764
     29 C         141.4696  132.9901  155.3528 C.ar    1  UNL1        0.1762
     30 C         141.2654  134.4729  155.2551 C.ar    1  UNL1        0.0373
     31 O         140.7995  131.8372  154.6659 O.3     1  UNL1       -0.4346
     32 C         141.4276  130.5706  155.1669 C.3     1  UNL1        0.4294
     33 O         142.4859  130.9405  156.1634 O.3     1  UNL1       -0.4346
@<TRIPOS>BOND
     1     1     2    2
     2     2     3   am
     3     3    18    1
     4    18    19    1
     5    19    20    1
     6    20    21    1
     7    21    24    1
     8    24    25    1
     9    25    26   ar
    10    26    27   ar
    11    27    28   ar
    12    28    29   ar
    13    29    30   ar
    14    29    31    1
    15    31    32    1
    16    32    33    1
    17    21    22    1
    18    22    23    1
    19     2     5    1
    20     5     6   ar
    21     6     7   ar
    22     7     8    2
    23     7     9   ar
    24     9    10   ar
    25    10    11   ar
    26    11    12    1
    27    11    13   ar
    28    13    14    1
    29    13    15   ar
    30    15    16   ar
    31    16    17   ar
    32    23    18    1
    33    17     5   ar
    34    30    25   ar
    35    16     9   ar
    36    33    28    1
    37     3     4    1
@<TRIPOS>MOLECULE
*****
 33 37 0 0 0
SMALL
GASTEIGER

@<TRIPOS>ATOM
      1 O         142.1276  137.6617  161.4761 O.2     1  UNL1       -0.2668
      2 C         141.6547  139.0773  161.3254 C.2     1  UNL1        0.2806
      3 N         141.3024  139.6099  159.9682 N.am    1  UNL1       -0.2999
      4 H         140.9920  140.5390  159.8694 H       1  UNL1        0.1498
      5 C         141.5342  139.9602  162.5321 C.ar    1  UNL1        0.2014
      6 C         142.0572  141.3653  162.4886 C.ar    1  UNL1        0.0843
      7 C         141.9367  142.2482  163.6952 C.ar    1  UNL1        0.2018
      8 O         142.4597  143.6534  163.6517 O.2     1  UNL1       -0.2864
      9 C         141.2931  141.7258  164.9454 C.ar    1  UNL1        0.0744
     10 C         141.1726  142.6087  166.1521 C.ar    1  UNL1        0.0185
     11 C         140.5291  142.0864  167.4023 C.ar    1  UNL1        0.0685
     12 CL        140.4086  142.9692  168.6090 Cl      1  UNL1       -0.0814
     13 C         140.0061  140.6811  167.4459 C.ar    1  UNL1        0.0712
     14 CL        139.3626  140.1588  168.6961 Cl      1  UNL1       -0.0813
     15 C         140.1266  139.7983  166.2392 C.ar    1  UNL1        0.0498
     16 C         140.7702  140.3206  164.9890 C.ar    1  UNL1        0.1494
     17 O         140.8907  139.4378  163.7823 O.2     1  UNL1       -0.4487
     18 C         141.4229  138.7270  158.7615 C.3     1  UNL1        0.0747
     19 C         142.7775  138.3194  158.2627 C.3     1  UNL1        0.0369
     20 C         142.8980  137.4366  157.0561 C.3     1  UNL1        0.0741
     21 N         141.6638  136.9613  156.3483 N.3     1  UNL1       -0.2688
     22 C         140.3092  137.3689  156.8471 C.3     1  UNL1        0.0741
     23 C         140.1888  138.2517  158.0537 C.3     1  UNL1        0.0369
     24 C         141.7844  136.0784  155.1416 C.3     1  UNL1        0.0992
     25 C         142.1381  134.6298  155.3044 C.ar    1  UNL1       -0.0029
     26 C         141.0800  133.5776  155.1515 C.ar    1  UNL1        0.0004
     27 C         141.4338  132.1291  155.3144 C.ar    1  UNL1        0.0399
     28 C         142.8456  131.7327  155.6301 C.ar    1  UNL1        0.1764
     29 C         143.9037  132.7849  155.7830 C.ar    1  UNL1        0.1762
     30 C         143.5499  134.2335  155.6202 C.ar    1  UNL1        0.0373
     31 O         145.2001  132.0970  156.0931 O.3     1  UNL1       -0.4346
     32 C         144.9432  130.6198  156.1318 C.3     1  UNL1        0.4294
     33 O         143.4882  130.3945  155.8457 O.3     1  UNL1       -0.4346
@<TRIPOS>BOND
     1     1     2    2
     2     2     3   am
     3     3    18    1
     4    18    19    1
     5    19    20    1
     6    20    21    1
     7    21    24    1
     8    24    25    1
     9    25    26   ar
    10    26    27   ar
    11    27    28   ar
    12    28    29   ar
    13    29    30   ar
    14    29    31    1
    15    31    32    1
    16    32    33    1
    17    21    22    1
    18    22    23    1
    19     2     5    1
    20     5     6   ar
    21     6     7   ar
    22     7     8    2
    23     7     9   ar
    24     9    10   ar
    25    10    11   ar
    26    11    12    1
    27    11    13   ar
    28    13    14    1
    29    13    15   ar
    30    15    16   ar
    31    16    17   ar
    32    23    18    1
    33    17     5   ar
    34    30    25   ar
    35    16     9   ar
    36    33    28    1
    37     3     4    1
@<TRIPOS>MOLECULE
*****
 33 37 0 0 0
SMALL
GASTEIGER

@<TRIPOS>ATOM
      1 O         141.7684  142.1692  162.1668 O.2     1  UNL1       -0.2668
      2 C         142.7937  141.2842  162.8114 C.2     1  UNL1        0.2806
      3 N         143.9162  140.7177  161.9936 N.am    1  UNL1       -0.2999
      4 H         144.5891  140.1368  162.4167 H       1  UNL1        0.1498
      5 C         142.6965  140.9659  164.2741 C.ar    1  UNL1        0.2014
      6 C         143.3495  139.7298  164.8176 C.ar    1  UNL1        0.0843
      7 C         143.2523  139.4115  166.2802 C.ar    1  UNL1        0.2018
      8 O         143.9054  138.1753  166.8238 O.2     1  UNL1       -0.2864
      9 C         142.5019  140.3293  167.1992 C.ar    1  UNL1        0.0744
     10 C         142.4047  140.0109  168.6619 C.ar    1  UNL1        0.0185
     11 C         141.6544  140.9287  169.5809 C.ar    1  UNL1        0.0685
     12 CL        141.5571  140.6104  171.0435 Cl      1  UNL1       -0.0814
     13 C         141.0013  142.1649  169.0373 C.ar    1  UNL1        0.0712
     14 CL        140.2509  143.0827  169.9564 Cl      1  UNL1       -0.0813
     15 C         141.0985  142.4832  167.5747 C.ar    1  UNL1        0.0498
     16 C         141.8489  141.5654  166.6557 C.ar    1  UNL1        0.1494
     17 O         141.9461  141.8837  165.1931 O.2     1  UNL1       -0.4487
     18 C         144.0134  141.0360  160.5309 C.3     1  UNL1        0.0747
     19 C         143.7308  139.9726  159.5115 C.3     1  UNL1        0.0369
     20 C         143.8281  140.2910  158.0489 C.3     1  UNL1        0.0741
     21 N         144.2079  141.6728  157.6058 N.3     1  UNL1       -0.2688
     22 C         144.4905  142.7362  158.6252 C.3     1  UNL1        0.0741
     23 C         144.3933  142.4178  160.0878 C.3     1  UNL1        0.0369
     24 C         144.3052  141.9912  156.1432 C.3     1  UNL1        0.0992
     25 C         145.6338  141.9320  155.4494 C.ar    1  UNL1       -0.0029
     26 C         145.6961  141.8790  153.9517 C.ar    1  UNL1        0.0004
     27 C         147.0247  141.8198  153.2579 C.ar    1  UNL1        0.0399
     28 C         148.2910  141.8135  154.0620 C.ar    1  UNL1        0.1764
     29 C         148.2287  141.8665  155.5597 C.ar    1  UNL1        0.1762
     30 C         146.9000  141.9257  156.2535 C.ar    1  UNL1        0.0373
     31 O         149.6343  141.8470  156.0831 O.3     1  UNL1       -0.4346
     32 C         150.5652  141.7819  154.9088 C.3     1  UNL1        0.4294
     33 O         149.7351  141.7612  153.6597 O.3     1  UNL1       -0.4346
@<TRIPOS>BOND
     1     1     2    2
     2     2     3   am
     3     3    18    1
     4    18    19    1
     5    19    20    1
     6    20    21    1
     7    21    24    1
     8    24    25    1
     9    25    26   ar
    10    26    27   ar
    11    27    28   ar
    12    28    29   ar
    13    29    30   ar
    14    29    31    1
    15    31    32    1
    16    32    33    1
    17    21    22    1
    18    22    23    1
    19     2     5    1
    20     5     6   ar
    21     6     7   ar
    22     7     8    2
    23     7     9   ar
    24     9    10   ar
    25    10    11   ar
    26    11    12    1
    27    11    13   ar
    28    13    14    1
    29    13    15   ar
    30    15    16   ar
    31    16    17   ar
    32    23    18    1
    33    17     5   ar
    34    30    25   ar
    35    16     9   ar
    36    33    28    1
    37     3     4    1
@<TRIPOS>MOLECULE
*****
 33 37 0 0 0
SMALL
GASTEIGER

@<TRIPOS>ATOM
      1 O         139.2255  144.7678  161.2750 O.2     1  UNL1       -0.2668
      2 C         140.2754  143.7081  161.4319 C.2     1  UNL1        0.2806
      3 N         141.0257  143.2121  160.2315 N.am    1  UNL1       -0.2999
      4 H         141.7148  142.5165  160.3345 H       1  UNL1        0.1498
      5 C         140.5751  143.1444  162.7893 C.ar    1  UNL1        0.2014
      6 C         139.9582  143.7602  164.0100 C.ar    1  UNL1        0.0843
      7 C         140.2579  143.1965  165.3674 C.ar    1  UNL1        0.2018
      8 O         139.6410  143.8123  166.5882 O.2     1  UNL1       -0.2864
      9 C         141.1744  142.0170  165.5040 C.ar    1  UNL1        0.0744
     10 C         141.4741  141.4533  166.8614 C.ar    1  UNL1        0.0185
     11 C         142.3907  140.2738  166.9980 C.ar    1  UNL1        0.0685
     12 CL        142.6904  139.7101  168.3553 Cl      1  UNL1       -0.0814
     13 C         143.0076  139.6580  165.7772 C.ar    1  UNL1        0.0712
     14 CL        143.9242  138.4785  165.9138 Cl      1  UNL1       -0.0813
     15 C         142.7079  140.2217  164.4199 C.ar    1  UNL1        0.0498
     16 C         141.7913  141.4012  164.2833 C.ar    1  UNL1        0.1494
     17 O         141.4917  141.9649  162.9259 O.2     1  UNL1       -0.4487
     18 C         140.7260  143.7758  158.8741 C.3     1  UNL1        0.0747
     19 C         139.5495  143.2682  158.0942 C.3     1  UNL1        0.0369
     20 C         139.2499  143.8319  156.7369 C.3     1  UNL1        0.0741
     21 N         140.1268  144.9032  156.1594 N.3     1  UNL1       -0.2688
     22 C         141.3032  145.4107  156.9392 C.3     1  UNL1        0.0741
     23 C         141.6028  144.8470  158.2966 C.3     1  UNL1        0.0369
     24 C         139.8271  145.4669  154.8019 C.3     1  UNL1        0.0992
     25 C         139.7750  146.9525  154.6016 C.ar    1  UNL1       -0.0029
     26 C         140.6122  147.5953  153.5358 C.ar    1  UNL1        0.0004
     27 C         140.5601  149.0809  153.3354 C.ar    1  UNL1        0.0399
     28 C         139.6709  149.9238  154.2008 C.ar    1  UNL1        0.1764
     29 C         138.8338  149.2809  155.2666 C.ar    1  UNL1        0.1762
     30 C         138.8859  147.7952  155.4670 C.ar    1  UNL1        0.0373
     31 O         138.0582  150.3609  155.9612 O.3     1  UNL1       -0.4346
     32 C         138.4161  151.6710  155.3246 C.3     1  UNL1        0.4294
     33 O         139.4127  151.4010  154.2367 O.3     1  UNL1       -0.4346
@<TRIPOS>BOND
     1     1     2    2
     2     2     3   am
     3     3    18    1
     4    18    19    1
     5    19    20    1
     6    20    21    1
     7    21    24    1
     8    24    25    1
     9    25    26   ar
    10    26    27   ar
    11    27    28   ar
    12    28    29   ar
    13    29    30   ar
    14    29    31    1
    15    31    32    1
    16    32    33    1
    17    21    22    1
    18    22    23    1
    19     2     5    1
    20     5     6   ar
    21     6     7   ar
    22     7     8    2
    23     7     9   ar
    24     9    10   ar
    25    10    11   ar
    26    11    12    1
    27    11    13   ar
    28    13    14    1
    29    13    15   ar
    30    15    16   ar
    31    16    17   ar
    32    23    18    1
    33    17     5   ar
    34    30    25   ar
    35    16     9   ar
    36    33    28    1
    37     3     4    1
