@<TRIPOS>MOLECULE
*****
 22 24 0 0 0
SMALL
GASTEIGER

@<TRIPOS>ATOM
      1 C         142.9641  143.0042  170.3390 C.3     1  UNL1        0.0310
      2 C         142.2227  142.1679  169.3385 C.ar    1  UNL1       -0.0222
      3 C         140.7433  142.3433  169.1638 C.ar    1  UNL1       -0.0043
      4 C         140.0018  141.5070  168.1633 C.ar    1  UNL1       -0.0009
      5 C         140.7398  140.4954  167.3376 C.ar    1  UNL1       -0.0079
      6 C         142.2192  140.3200  167.5123 C.ar    1  UNL1       -0.0187
      7 C         142.9606  141.1563  168.5128 C.ar    1  UNL1       -0.0082
      8 C         142.6746  139.2511  166.5635 C.3     1  UNL1        0.0480
      9 C         141.4765  138.7659  165.8024 C.2     1  UNL1       -0.0420
     10 C         140.2808  139.5349  166.2808 C.2     1  UNL1       -0.0242
     11 C         138.8732  139.3720  165.7889 C.3     1  UNL1        0.0681
     12 C         137.9170  138.4861  166.5311 C.3     1  UNL1        0.0116
     13 C         138.4216  140.0950  164.5546 C.ar    1  UNL1        0.0919
     14 N         138.1892  139.4786  163.2070 N.ar    1  UNL1       -0.2408
     15 C         137.7471  140.5639  162.2708 C.ar    1  UNL1        0.1061
     16 C         137.7063  141.8512  163.0397 C.ar    1  UNL1        0.0572
     17 S         138.1231  141.5615  164.4512 S.2     1  UNL1       -0.0699
     18 C         141.4745  137.6989  164.7480 C.3     1  UNL1        0.0394
     19 C         141.5330  138.0776  163.2978 C.3     1  UNL1        0.0765
     20 N         142.3305  139.2724  162.8662 N.3     1  UNL1       -0.2700
     21 C         141.6353  140.5623  162.5457 C.3     1  UNL1        0.0897
     22 C         143.8234  139.1773  162.7550 C.3     1  UNL1        0.0897
@<TRIPOS>BOND
     1     1     2    1
     2     2     3   ar
     3     3     4   ar
     4     4     5   ar
     5     5     6   ar
     6     6     7   ar
     7     6     8    1
     8     8     9    1
     9     9    18    1
    10    18    19    1
    11    19    20    1
    12    20    21    1
    13    20    22    1
    14     9    10    2
    15    10    11    1
    16    11    12    1
    17    11    13    1
    18    13    14   ar
    19    14    15   ar
    20    15    16   ar
    21    16    17   ar
    22     7     2   ar
    23    17    13   ar
    24    10     5    1
@<TRIPOS>MOLECULE
*****
 22 24 0 0 0
SMALL
GASTEIGER

@<TRIPOS>ATOM
      1 C         139.6158  146.1046  161.9069 C.3     1  UNL1        0.0310
      2 C         139.7310  144.9464  162.8531 C.ar    1  UNL1       -0.0222
      3 C         140.8709  144.8832  163.8260 C.ar    1  UNL1       -0.0043
      4 C         140.9861  143.7250  164.7722 C.ar    1  UNL1       -0.0009
      5 C         139.9613  142.6300  164.7455 C.ar    1  UNL1       -0.0079
      6 C         138.8214  142.6932  163.7727 C.ar    1  UNL1       -0.0187
      7 C         138.7062  143.8514  162.8265 C.ar    1  UNL1       -0.0082
      8 C         137.9695  141.4755  163.9770 C.3     1  UNL1        0.0480
      9 C         138.5831  140.6597  165.0761 C.2     1  UNL1       -0.0420
     10 C         139.8141  141.3733  165.5511 C.2     1  UNL1       -0.0242
     11 C         140.7360  140.9112  166.6403 C.3     1  UNL1        0.0681
     12 C         142.0933  140.3734  166.2962 C.3     1  UNL1        0.0116
     13 C         140.3006  140.9868  168.0737 C.ar    1  UNL1        0.0919
     14 N         139.5706  139.9175  168.8311 N.ar    1  UNL1       -0.2408
     15 C         139.3376  140.4147  170.2269 C.ar    1  UNL1        0.1061
     16 C         139.9237  141.7915  170.3323 C.ar    1  UNL1        0.0572
     17 S         140.5188  142.1451  169.0016 S.2     1  UNL1       -0.0699
     18 C         138.0579  139.3588  165.6070 C.3     1  UNL1        0.0394
     19 C         138.7723  138.0777  165.2935 C.3     1  UNL1        0.0765
     20 N         139.4555  137.9046  163.9694 N.3     1  UNL1       -0.2700
     21 C         138.6452  137.8557  162.7080 C.3     1  UNL1        0.0897
     22 C         140.9490  137.7803  163.9067 C.3     1  UNL1        0.0897
@<TRIPOS>BOND
     1     1     2    1
     2     2     3   ar
     3     3     4   ar
     4     4     5   ar
     5     5     6   ar
     6     6     7   ar
     7     6     8    1
     8     8     9    1
     9     9    18    1
    10    18    19    1
    11    19    20    1
    12    20    21    1
    13    20    22    1
    14     9    10    2
    15    10    11    1
    16    11    12    1
    17    11    13    1
    18    13    14   ar
    19    14    15   ar
    20    15    16   ar
    21    16    17   ar
    22     7     2   ar
    23    17    13   ar
    24    10     5    1
@<TRIPOS>MOLECULE
*****
 22 24 0 0 0
SMALL
GASTEIGER

@<TRIPOS>ATOM
      1 C         138.0293  138.0351  161.8097 C.3     1  UNL1        0.0310
      2 C         139.2189  138.2392  162.7003 C.ar    1  UNL1       -0.0222
      3 C         139.1825  137.7613  164.1217 C.ar    1  UNL1       -0.0043
      4 C         140.3721  137.9654  165.0123 C.ar    1  UNL1       -0.0009
      5 C         141.5981  138.6474  164.4816 C.ar    1  UNL1       -0.0079
      6 C         141.6345  139.1254  163.0603 C.ar    1  UNL1       -0.0187
      7 C         140.4449  138.9213  162.1697 C.ar    1  UNL1       -0.0082
      8 C         142.9722  139.7597  162.8187 C.3     1  UNL1        0.0480
      9 C         143.7624  139.6738  164.0907 C.2     1  UNL1       -0.0420
     10 C         142.9132  138.9863  165.1184 C.2     1  UNL1       -0.0242
     11 C         143.3095  138.6898  166.5344 C.3     1  UNL1        0.0681
     12 C         144.2557  137.5636  166.8283 C.3     1  UNL1        0.0116
     13 C         142.7597  139.5195  167.6566 C.ar    1  UNL1        0.0919
     14 N         142.7668  139.1515  169.1107 N.ar    1  UNL1       -0.2408
     15 C         142.1178  140.2674  169.8746 C.ar    1  UNL1        0.1061
     16 C         141.7095  141.3252  168.8925 C.ar    1  UNL1        0.0572
     17 S         142.1062  140.8630  167.5217 S.2     1  UNL1       -0.0699
     18 C         145.1571  140.1854  164.2985 C.3     1  UNL1        0.0394
     19 C         145.6143  141.4259  163.5899 C.3     1  UNL1        0.0765
     20 N         144.8280  142.6967  163.7195 N.3     1  UNL1       -0.2700
     21 C         144.4481  143.2083  165.0774 C.3     1  UNL1        0.0897
     22 C         144.4216  143.4557  162.4913 C.3     1  UNL1        0.0897
@<TRIPOS>BOND
     1     1     2    1
     2     2     3   ar
     3     3     4   ar
     4     4     5   ar
     5     5     6   ar
     6     6     7   ar
     7     6     8    1
     8     8     9    1
     9     9    18    1
    10    18    19    1
    11    19    20    1
    12    20    21    1
    13    20    22    1
    14     9    10    2
    15    10    11    1
    16    11    12    1
    17    11    13    1
    18    13    14   ar
    19    14    15   ar
    20    15    16   ar
    21    16    17   ar
    22     7     2   ar
    23    17    13   ar
    24    10     5    1
@<TRIPOS>MOLECULE
*****
 22 24 0 0 0
SMALL
GASTEIGER

@<TRIPOS>ATOM
      1 C         140.6088  143.8136  169.9667 C.3     1  UNL1        0.0310
      2 C         141.0068  142.7329  169.0056 C.ar    1  UNL1       -0.0222
      3 C         142.4575  142.4801  168.7200 C.ar    1  UNL1       -0.0043
      4 C         142.8555  141.3994  167.7589 C.ar    1  UNL1       -0.0009
      5 C         141.8028  140.5715  167.0834 C.ar    1  UNL1       -0.0079
      6 C         140.3521  140.8243  167.3690 C.ar    1  UNL1       -0.0187
      7 C         139.9541  141.9050  168.3301 C.ar    1  UNL1       -0.0082
      8 C         139.5442  139.8544  166.5586 C.3     1  UNL1        0.0480
      9 C         140.4957  139.0022  165.7721 C.2     1  UNL1       -0.0420
     10 C         141.8915  139.4454  166.0965 C.2     1  UNL1       -0.0242
     11 C         143.1544  138.8645  165.5329 C.3     1  UNL1        0.0681
     12 C         144.0005  137.9534  166.3719 C.3     1  UNL1        0.0116
     13 C         143.5712  139.1946  164.1304 C.ar    1  UNL1        0.0919
     14 N         143.3524  138.3357  162.9202 N.ar    1  UNL1       -0.2408
     15 C         143.9259  139.0517  161.7336 C.ar    1  UNL1        0.1061
     16 C         144.4993  140.3534  162.2103 C.ar    1  UNL1        0.0572
     17 S         144.2801  140.4417  163.6915 S.2     1  UNL1       -0.0699
     18 C         140.1177  137.9002  164.8272 C.3     1  UNL1        0.0394
     19 C         139.7419  138.2224  163.4112 C.3     1  UNL1        0.0765
     20 N         139.4211  139.6354  163.0234 N.3     1  UNL1       -0.2700
     21 C         140.4994  140.5288  162.4858 C.3     1  UNL1        0.0897
     22 C         138.0219  140.1549  163.1731 C.3     1  UNL1        0.0897
@<TRIPOS>BOND
     1     1     2    1
     2     2     3   ar
     3     3     4   ar
     4     4     5   ar
     5     5     6   ar
     6     6     7   ar
     7     6     8    1
     8     8     9    1
     9     9    18    1
    10    18    19    1
    11    19    20    1
    12    20    21    1
    13    20    22    1
    14     9    10    2
    15    10    11    1
    16    11    12    1
    17    11    13    1
    18    13    14   ar
    19    14    15   ar
    20    15    16   ar
    21    16    17   ar
    22     7     2   ar
    23    17    13   ar
    24    10     5    1
@<TRIPOS>MOLECULE
*****
 22 24 0 0 0
SMALL
GASTEIGER

@<TRIPOS>ATOM
      1 C         144.0087  142.2833  169.9636 C.3     1  UNL1        0.0310
      2 C         142.9313  141.7901  169.0439 C.ar    1  UNL1       -0.0222
      3 C         142.6275  140.3234  168.9631 C.ar    1  UNL1       -0.0043
      4 C         141.5501  139.8302  168.0434 C.ar    1  UNL1       -0.0009
      5 C         140.7765  140.8036  167.2044 C.ar    1  UNL1       -0.0079
      6 C         141.0803  142.2703  167.2852 C.ar    1  UNL1       -0.0187
      7 C         142.1577  142.7635  168.2049 C.ar    1  UNL1       -0.0082
      8 C         140.1578  142.9873  166.3444 C.3     1  UNL1        0.0480
      9 C         139.2839  141.9637  165.6822 C.2     1  UNL1       -0.0420
     10 C         139.6662  140.6141  166.2137 C.2     1  UNL1       -0.0242
     11 C         139.0471  139.3049  165.8231 C.3     1  UNL1        0.0681
     12 C         137.9553  138.7113  166.6632 C.3     1  UNL1        0.0116
     13 C         139.5196  138.5892  164.5926 C.ar    1  UNL1        0.0919
     14 N         140.7769  137.7801  164.4712 N.ar    1  UNL1       -0.2408
     15 C         140.8523  137.2477  163.0710 C.ar    1  UNL1        0.1061
     16 C         139.6416  137.7278  162.3268 C.ar    1  UNL1        0.0572
     17 S         138.8180  138.5568  163.2671 S.2     1  UNL1       -0.0699
     18 C         138.2151  142.2409  164.6668 C.3     1  UNL1        0.0394
     19 C         138.5832  142.4438  163.2268 C.3     1  UNL1        0.0765
     20 N         139.5680  143.5097  162.8475 N.3     1  UNL1       -0.2700
     21 C         139.1737  144.9552  162.9195 C.3     1  UNL1        0.0897
     22 C         140.9472  143.1302  162.3961 C.3     1  UNL1        0.0897
@<TRIPOS>BOND
     1     1     2    1
     2     2     3   ar
     3     3     4   ar
     4     4     5   ar
     5     5     6   ar
     6     6     7   ar
     7     6     8    1
     8     8     9    1
     9     9    18    1
    10    18    19    1
    11    19    20    1
    12    20    21    1
    13    20    22    1
    14     9    10    2
    15    10    11    1
    16    11    12    1
    17    11    13    1
    18    13    14   ar
    19    14    15   ar
    20    15    16   ar
    21    16    17   ar
    22     7     2   ar
    23    17    13   ar
    24    10     5    1
@<TRIPOS>MOLECULE
*****
 22 24 0 0 0
SMALL
GASTEIGER

@<TRIPOS>ATOM
      1 C         142.2412  139.1288  169.9564 C.3     1  UNL1        0.0310
      2 C         141.8107  140.0574  168.8599 C.ar    1  UNL1       -0.0222
      3 C         140.3512  140.2915  168.6052 C.ar    1  UNL1       -0.0043
      4 C         139.9206  141.2201  167.5087 C.ar    1  UNL1       -0.0009
      5 C         140.9496  141.9145  166.6667 C.ar    1  UNL1       -0.0079
      6 C         142.4092  141.6803  166.9214 C.ar    1  UNL1       -0.0187
      7 C         142.8397  140.7518  168.0179 C.ar    1  UNL1       -0.0082
      8 C         143.1889  142.4992  165.9356 C.3     1  UNL1        0.0480
      9 C         142.2112  143.2393  165.0718 C.2     1  UNL1       -0.0420
     10 C         140.8273  142.8780  165.5236 C.2     1  UNL1       -0.0242
     11 C         139.5459  143.3902  164.9357 C.3     1  UNL1        0.0681
     12 C         138.9404  144.6625  165.4501 C.3     1  UNL1        0.0116
     13 C         138.8700  142.6302  163.8332 C.ar    1  UNL1        0.0919
     14 N         138.8305  143.0239  162.3863 N.ar    1  UNL1       -0.2408
     15 C         138.0511  141.9802  161.6428 C.ar    1  UNL1        0.1061
     16 C         137.6086  140.9412  162.6302 C.ar    1  UNL1        0.0572
     17 S         138.1147  141.3429  163.9839 S.2     1  UNL1       -0.0699
     18 C         142.5567  144.1764  163.9526 C.3     1  UNL1        0.0394
     19 C         143.9463  144.1899  163.3877 C.3     1  UNL1        0.0765
     20 N         144.4124  143.0621  162.5156 N.3     1  UNL1       -0.2700
     21 C         143.8975  142.9370  161.1123 C.3     1  UNL1        0.0897
     22 C         145.3933  142.0594  163.0467 C.3     1  UNL1        0.0897
@<TRIPOS>BOND
     1     1     2    1
     2     2     3   ar
     3     3     4   ar
     4     4     5   ar
     5     5     6   ar
     6     6     7   ar
     7     6     8    1
     8     8     9    1
     9     9    18    1
    10    18    19    1
    11    19    20    1
    12    20    21    1
    13    20    22    1
    14     9    10    2
    15    10    11    1
    16    11    12    1
    17    11    13    1
    18    13    14   ar
    19    14    15   ar
    20    15    16   ar
    21    16    17   ar
    22     7     2   ar
    23    17    13   ar
    24    10     5    1
@<TRIPOS>MOLECULE
*****
 22 24 0 0 0
SMALL
GASTEIGER

@<TRIPOS>ATOM
      1 C         142.3155  139.4788  169.0549 C.3     1  UNL1        0.0310
      2 C         141.5593  140.3393  168.0865 C.ar    1  UNL1       -0.0222
      3 C         141.8152  141.8165  168.0375 C.ar    1  UNL1       -0.0043
      4 C         141.0591  142.6770  167.0692 C.ar    1  UNL1       -0.0009
      5 C         140.0470  142.0603  166.1497 C.ar    1  UNL1       -0.0079
      6 C         139.7911  140.5831  166.1986 C.ar    1  UNL1       -0.0187
      7 C         140.5473  139.7226  167.1670 C.ar    1  UNL1       -0.0082
      8 C         138.7411  140.2605  165.1771 C.3     1  UNL1        0.0480
      9 C         138.3481  141.5383  164.4969 C.2     1  UNL1       -0.0420
     10 C         139.1552  142.6506  165.0980 C.2     1  UNL1       -0.0242
     11 C         139.0831  144.0990  164.7147 C.3     1  UNL1        0.0681
     12 C         138.4105  145.0832  165.6251 C.3     1  UNL1        0.0116
     13 C         139.6836  144.5633  163.4209 C.ar    1  UNL1        0.0919
     14 N         138.9916  145.3809  162.3709 N.ar    1  UNL1       -0.2408
     15 C         139.9617  145.6145  161.2510 C.ar    1  UNL1        0.1061
     16 C         141.2535  144.9411  161.6089 C.ar    1  UNL1        0.0572
     17 S         141.0816  144.2914  162.9499 S.2     1  UNL1       -0.0699
     18 C         137.3272  141.6791  163.4069 C.3     1  UNL1        0.0394
     19 C         137.7686  141.8644  161.9853 C.3     1  UNL1        0.0765
     20 N         138.5596  140.7903  161.2995 N.3     1  UNL1       -0.2700
     21 C         137.8540  139.6303  160.6620 C.3     1  UNL1        0.0897
     22 C         140.0564  140.8761  161.2512 C.3     1  UNL1        0.0897
@<TRIPOS>BOND
     1     1     2    1
     2     2     3   ar
     3     3     4   ar
     4     4     5   ar
     5     5     6   ar
     6     6     7   ar
     7     6     8    1
     8     8     9    1
     9     9    18    1
    10    18    19    1
    11    19    20    1
    12    20    21    1
    13    20    22    1
    14     9    10    2
    15    10    11    1
    16    11    12    1
    17    11    13    1
    18    13    14   ar
    19    14    15   ar
    20    15    16   ar
    21    16    17   ar
    22     7     2   ar
    23    17    13   ar
    24    10     5    1
@<TRIPOS>MOLECULE
*****
 22 24 0 0 0
SMALL
GASTEIGER

@<TRIPOS>ATOM
      1 C         140.2788  139.9624  170.8118 C.3     1  UNL1        0.0310
      2 C         140.1992  140.6539  169.4831 C.ar    1  UNL1       -0.0222
      3 C         140.7506  142.0398  169.3246 C.ar    1  UNL1       -0.0043
      4 C         140.6710  142.7313  167.9959 C.ar    1  UNL1       -0.0009
      5 C         140.0400  142.0369  166.8256 C.ar    1  UNL1       -0.0079
      6 C         139.4886  140.6509  166.9841 C.ar    1  UNL1       -0.0187
      7 C         139.5682  139.9595  168.3128 C.ar    1  UNL1       -0.0082
      8 C         138.9280  140.2210  165.6608 C.3     1  UNL1        0.0480
      9 C         139.1330  141.3412  164.6846 C.2     1  UNL1       -0.0420
     10 C         139.8202  142.4635  165.4045 C.2     1  UNL1       -0.0242
     11 C         140.2179  143.7811  164.8080 C.3     1  UNL1        0.0681
     12 C         139.2073  144.8822  164.6805 C.3     1  UNL1        0.0116
     13 C         141.6261  143.9976  164.3389 C.ar    1  UNL1        0.0919
     14 N         142.8423  143.2745  164.8369 N.ar    1  UNL1       -0.2408
     15 C         144.0332  143.8051  164.0954 C.ar    1  UNL1        0.1061
     16 C         143.5531  144.8562  163.1389 C.ar    1  UNL1        0.0572
     17 S         142.0654  144.9751  163.2894 S.2     1  UNL1       -0.0699
     18 C         138.7227  141.3395  163.2417 C.3     1  UNL1        0.0394
     19 C         137.8400  140.2474  162.7143 C.3     1  UNL1        0.0765
     20 N         138.4438  139.0720  162.0046 N.3     1  UNL1       -0.2700
     21 C         138.7313  139.1503  160.5344 C.3     1  UNL1        0.0897
     22 C         138.7602  137.8184  162.7649 C.3     1  UNL1        0.0897
@<TRIPOS>BOND
     1     1     2    1
     2     2     3   ar
     3     3     4   ar
     4     4     5   ar
     5     5     6   ar
     6     6     7   ar
     7     6     8    1
     8     8     9    1
     9     9    18    1
    10    18    19    1
    11    19    20    1
    12    20    21    1
    13    20    22    1
    14     9    10    2
    15    10    11    1
    16    11    12    1
    17    11    13    1
    18    13    14   ar
    19    14    15   ar
    20    15    16   ar
    21    16    17   ar
    22     7     2   ar
    23    17    13   ar
    24    10     5    1
@<TRIPOS>MOLECULE
*****
 22 24 0 0 0
SMALL
GASTEIGER

@<TRIPOS>ATOM
      1 C         140.4821  141.4591  171.0918 C.3     1  UNL1        0.0310
      2 C         140.3585  141.3671  169.5997 C.ar    1  UNL1       -0.0222
      3 C         141.0196  142.3930  168.7277 C.ar    1  UNL1       -0.0043
      4 C         140.8960  142.3010  167.2356 C.ar    1  UNL1       -0.0009
      5 C         140.1114  141.1830  166.6156 C.ar    1  UNL1       -0.0079
      6 C         139.4504  140.1571  167.4876 C.ar    1  UNL1       -0.0187
      7 C         139.5739  140.2491  168.9796 C.ar    1  UNL1       -0.0082
      8 C         138.7474  139.1756  166.5973 C.3     1  UNL1        0.0480
      9 C         138.9740  139.5950  165.1751 C.2     1  UNL1       -0.0420
     10 C         139.8170  140.8356  165.1864 C.2     1  UNL1       -0.0242
     11 C         140.2837  141.5955  163.9802 C.3     1  UNL1        0.0681
     12 C         141.4631  141.1042  163.1944 C.3     1  UNL1        0.0116
     13 C         139.5710  142.8466  163.5599 C.ar    1  UNL1        0.0919
     14 N         140.2099  144.1760  163.2870 N.ar    1  UNL1       -0.2408
     15 C         139.1282  145.1390  162.8970 C.ar    1  UNL1        0.1061
     16 C         137.8204  144.4049  162.9289 C.ar    1  UNL1        0.0572
     17 S         138.0941  142.9881  163.3386 S.2     1  UNL1       -0.0699
     18 C         138.4496  138.8963  163.9556 C.3     1  UNL1        0.0394
     19 C         139.1743  137.7043  163.4044 C.3     1  UNL1        0.0765
     20 N         140.0560  137.8534  162.2001 N.3     1  UNL1       -0.2700
     21 C         139.4637  138.2567  160.8823 C.3     1  UNL1        0.0897
     22 C         141.5299  137.5993  162.3136 C.3     1  UNL1        0.0897
@<TRIPOS>BOND
     1     1     2    1
     2     2     3   ar
     3     3     4   ar
     4     4     5   ar
     5     5     6   ar
     6     6     7   ar
     7     6     8    1
     8     8     9    1
     9     9    18    1
    10    18    19    1
    11    19    20    1
    12    20    21    1
    13    20    22    1
    14     9    10    2
    15    10    11    1
    16    11    12    1
    17    11    13    1
    18    13    14   ar
    19    14    15   ar
    20    15    16   ar
    21    16    17   ar
    22     7     2   ar
    23    17    13   ar
    24    10     5    1
