@<TRIPOS>MOLECULE
*****
 35 39 0 0 0
SMALL
GASTEIGER

@<TRIPOS>ATOM
      1 N         142.2695  143.6929  161.5753 N.3     1  UNL1       -0.2712
      2 C         143.5363  143.0605  161.0800 C.3     1  UNL1        0.0738
      3 C         144.1168  142.2476  162.1990 C.3     1  UNL1        0.0372
      4 C         145.2585  141.3544  162.5845 C.3     1  UNL1        0.0245
      5 C         145.0561  140.9323  164.0096 C.3     1  UNL1        0.0909
      6 N         143.7893  141.5648  164.5049 N.pl3   1  UNL1       -0.3077
      7 C         143.2088  142.3776  163.3859 C.3     1  UNL1        0.0901
      8 C         142.0671  143.2709  163.0004 C.3     1  UNL1        0.0921
      9 C         143.2055  141.4112  165.8781 C.ar    1  UNL1        0.0480
     10 C         142.4715  140.1556  166.2449 C.ar    1  UNL1        0.0176
     11 C         141.8877  140.0021  167.6181 C.ar    1  UNL1        0.0385
     12 C         142.0379  141.1042  168.6244 C.ar    1  UNL1        0.1469
     13 C         142.7719  142.3599  168.2576 C.ar    1  UNL1        0.0385
     14 C         143.3557  142.5134  166.8844 C.ar    1  UNL1        0.0176
     15 O         141.4541  140.9507  169.9976 O.3     1  UNL1       -0.4045
     16 C         140.0114  140.5746  170.1615 C.3     1  UNL1        0.5753
     17 F         138.5685  140.1985  170.3253 F       1  UNL1       -0.1328
     18 F         140.4208  139.2174  170.6518 F       1  UNL1       -0.1328
     19 F         139.6019  141.9318  169.6711 F       1  UNL1       -0.1328
     20 C         141.3641  144.5899  160.7843 C.3     1  UNL1        0.0731
     21 C         140.7282  145.7800  161.4395 C.3     1  UNL1        0.0294
     22 C         139.2553  145.7823  161.7232 C.3     1  UNL1        0.0666
     23 S         138.7241  145.0784  162.9366 S.3     1  UNL1       -0.0756
     24 C         139.4230  142.8429  165.2090 C.3     1  UNL1        0.1340
     25 N         138.7095  142.5905  163.9139 N.ar    1  UNL1       -0.2872
     26 C         138.3882  143.6180  162.8694 C.ar    1  UNL1        0.1933
     27 N         137.6722  142.9288  161.7459 N.ar    1  UNL1       -0.1221
     28 N         137.5508  141.4753  162.0961 N.ar    1  UNL1       -0.1266
     29 C         138.1919  141.2661  163.4360 C.ar    1  UNL1        0.1862
     30 C         138.2970  139.9617  164.1692 C.ar    1  UNL1        0.1362
     31 C         138.7194  138.7222  163.4377 C.ar    1  UNL1        0.1211
     32 N         138.8244  137.4178  164.1709 N.ar    1  UNL1       -0.2390
     33 C         138.5071  137.3531  165.6356 C.ar    1  UNL1        0.1195
     34 C         138.0847  138.5927  166.3670 C.ar    1  UNL1        0.1196
     35 N         137.9796  139.8970  165.6337 N.ar    1  UNL1       -0.2375
@<TRIPOS>BOND
     1    24    25    1
     2    25    26   ar
     3    26    23    1
     4    23    22    1
     5    22    21    1
     6    21    20    1
     7    20     1    1
     8     1     2    1
     9     2     3    1
    10     3     4    1
    11     4     5    1
    12     5     6    1
    13     6     9    1
    14     9    10   ar
    15    10    11   ar
    16    11    12   ar
    17    12    15    1
    18    15    16    1
    19    16    17    1
    20    16    18    1
    21    16    19    1
    22    12    13   ar
    23    13    14   ar
    24     6     7    1
    25     7     8    1
    26    26    27   ar
    27    27    28   ar
    28    28    29   ar
    29    29    30    1
    30    30    31   ar
    31    31    32   ar
    32    32    33   ar
    33    33    34   ar
    34    34    35   ar
    35    29    25   ar
    36    35    30   ar
    37     8     1    1
    38     7     3    1
    39    14     9   ar
@<TRIPOS>MOLECULE
*****
 35 39 0 0 0
SMALL
GASTEIGER

@<TRIPOS>ATOM
      1 N         138.2428  141.8726  162.7852 N.3     1  UNL1       -0.2712
      2 C         137.9567  140.4999  162.2524 C.3     1  UNL1        0.0738
      3 C         138.5083  139.5008  163.2258 C.3     1  UNL1        0.0372
      4 C         138.6724  138.0349  163.4982 C.3     1  UNL1        0.0245
      5 C         139.4007  137.8840  164.8008 C.3     1  UNL1        0.0909
      6 N         139.6868  139.2568  165.3335 N.pl3   1  UNL1       -0.3077
      7 C         139.1352  140.2560  164.3602 C.3     1  UNL1        0.0901
      8 C         138.9711  141.7219  164.0878 C.3     1  UNL1        0.0921
      9 C         140.3993  139.5746  166.6147 C.ar    1  UNL1        0.0480
     10 C         139.6167  139.9908  167.8248 C.ar    1  UNL1        0.0176
     11 C         140.3292  140.3085  169.1060 C.ar    1  UNL1        0.0385
     12 C         141.8242  140.2101  169.1770 C.ar    1  UNL1        0.1469
     13 C         142.6069  139.7940  167.9669 C.ar    1  UNL1        0.0385
     14 C         141.8944  139.4762  166.6857 C.ar    1  UNL1        0.0176
     15 O         142.5367  140.5279  170.4582 O.3     1  UNL1       -0.4045
     16 C         142.8738  141.9499  170.7961 C.3     1  UNL1        0.5753
     17 F         143.2110  143.3720  171.1340 F       1  UNL1       -0.1328
     18 F         141.6123  142.0578  171.6004 F       1  UNL1       -0.1328
     19 F         144.1354  141.8419  169.9918 F       1  UNL1       -0.1328
     20 C         137.8666  143.1686  162.1303 C.3     1  UNL1        0.0731
     21 C         138.2993  144.4697  162.7386 C.3     1  UNL1        0.0294
     22 C         139.3012  145.3324  162.0302 C.3     1  UNL1        0.0666
     23 S         140.7469  145.2832  162.4269 S.3     1  UNL1       -0.0756
     24 C         141.0202  142.8196  160.3042 C.3     1  UNL1        0.1340
     25 N         141.5336  142.8302  161.7136 N.ar    1  UNL1       -0.2872
     26 C         141.4080  143.9625  162.6893 C.ar    1  UNL1        0.1933
     27 N         142.0596  143.5424  163.9734 N.ar    1  UNL1       -0.1221
     28 N         142.5879  142.1504  163.7914 N.ar    1  UNL1       -0.1266
     29 C         142.2628  141.7101  162.3947 C.ar    1  UNL1        0.1862
     30 C         142.6066  140.3830  161.7861 C.ar    1  UNL1        0.1362
     31 C         143.9526  140.1716  161.1587 C.ar    1  UNL1        0.1211
     32 N         144.2964  138.8445  160.5501 N.ar    1  UNL1       -0.2390
     33 C         143.2941  137.7286  160.5689 C.ar    1  UNL1        0.1195
     34 C         141.9481  137.9399  161.1962 C.ar    1  UNL1        0.1196
     35 N         141.6044  139.2672  161.8048 N.ar    1  UNL1       -0.2375
@<TRIPOS>BOND
     1    24    25    1
     2    25    26   ar
     3    26    23    1
     4    23    22    1
     5    22    21    1
     6    21    20    1
     7    20     1    1
     8     1     2    1
     9     2     3    1
    10     3     4    1
    11     4     5    1
    12     5     6    1
    13     6     9    1
    14     9    10   ar
    15    10    11   ar
    16    11    12   ar
    17    12    15    1
    18    15    16    1
    19    16    17    1
    20    16    18    1
    21    16    19    1
    22    12    13   ar
    23    13    14   ar
    24     6     7    1
    25     7     8    1
    26    26    27   ar
    27    27    28   ar
    28    28    29   ar
    29    29    30    1
    30    30    31   ar
    31    31    32   ar
    32    32    33   ar
    33    33    34   ar
    34    34    35   ar
    35    29    25   ar
    36    35    30   ar
    37     8     1    1
    38     7     3    1
    39    14     9   ar
@<TRIPOS>MOLECULE
*****
 35 39 0 0 0
SMALL
GASTEIGER

@<TRIPOS>ATOM
      1 N         142.5351  138.4800  162.0081 N.3     1  UNL1       -0.2712
      2 C         141.2682  137.7678  161.6369 C.3     1  UNL1        0.0738
      3 C         140.2958  137.9324  162.7671 C.3     1  UNL1        0.0372
      4 C         138.9118  137.5940  163.2362 C.3     1  UNL1        0.0245
      5 C         138.7223  138.1987  164.5958 C.3     1  UNL1        0.0909
      6 N         139.9893  138.9109  164.9670 N.pl3   1  UNL1       -0.3077
      7 C         140.9617  138.7463  163.8368 C.3     1  UNL1        0.0901
      8 C         142.3457  139.0847  163.3677 C.3     1  UNL1        0.0921
      9 C         140.2398  139.6566  166.2441 C.ar    1  UNL1        0.0480
     10 C         141.4452  140.5401  166.3727 C.ar    1  UNL1        0.0176
     11 C         141.6957  141.2858  167.6498 C.ar    1  UNL1        0.0385
     12 C         140.7409  141.1482  168.7984 C.ar    1  UNL1        0.1469
     13 C         139.5354  140.2647  168.6698 C.ar    1  UNL1        0.0385
     14 C         139.2849  139.5189  167.3927 C.ar    1  UNL1        0.0176
     15 O         140.9914  141.8939  170.0755 O.3     1  UNL1       -0.4045
     16 C         140.6888  143.3607  170.1592 C.3     1  UNL1        0.5753
     17 F         140.3862  144.8275  170.2430 F       1  UNL1       -0.1328
     18 F         142.1254  143.6739  169.8623 F       1  UNL1       -0.1328
     19 F         139.2522  143.0474  170.4561 F       1  UNL1       -0.1328
     20 C         143.7740  138.5714  161.1673 C.3     1  UNL1        0.0731
     21 C         144.0903  139.8407  160.4334 C.3     1  UNL1        0.0294
     22 C         143.5393  140.0687  159.0570 C.3     1  UNL1        0.0666
     23 S         142.9048  141.3832  158.7114 S.3     1  UNL1       -0.0756
     24 C         140.3236  141.1479  160.6942 C.3     1  UNL1        0.1340
     25 N         141.3517  142.2400  160.7111 N.ar    1  UNL1       -0.2872
     26 C         142.5382  142.3481  159.7997 C.ar    1  UNL1        0.1933
     27 N         143.2937  143.5907  160.1677 N.ar    1  UNL1       -0.1221
     28 N         142.5742  144.2505  161.3065 N.ar    1  UNL1       -0.1266
     29 C         141.3739  143.4157  161.6424 C.ar    1  UNL1        0.1862
     30 C         140.3719  143.7058  162.7203 C.ar    1  UNL1        0.1362
     31 C         138.9978  144.1856  162.3575 C.ar    1  UNL1        0.1211
     32 N         137.9958  144.4757  163.4353 N.ar    1  UNL1       -0.2390
     33 C         138.3679  144.2859  164.8761 C.ar    1  UNL1        0.1195
     34 C         139.7420  143.8061  165.2388 C.ar    1  UNL1        0.1196
     35 N         140.7440  143.5160  164.1609 N.ar    1  UNL1       -0.2375
@<TRIPOS>BOND
     1    24    25    1
     2    25    26   ar
     3    26    23    1
     4    23    22    1
     5    22    21    1
     6    21    20    1
     7    20     1    1
     8     1     2    1
     9     2     3    1
    10     3     4    1
    11     4     5    1
    12     5     6    1
    13     6     9    1
    14     9    10   ar
    15    10    11   ar
    16    11    12   ar
    17    12    15    1
    18    15    16    1
    19    16    17    1
    20    16    18    1
    21    16    19    1
    22    12    13   ar
    23    13    14   ar
    24     6     7    1
    25     7     8    1
    26    26    27   ar
    27    27    28   ar
    28    28    29   ar
    29    29    30    1
    30    30    31   ar
    31    31    32   ar
    32    32    33   ar
    33    33    34   ar
    34    34    35   ar
    35    29    25   ar
    36    35    30   ar
    37     8     1    1
    38     7     3    1
    39    14     9   ar
@<TRIPOS>MOLECULE
*****
 35 39 0 0 0
SMALL
GASTEIGER

@<TRIPOS>ATOM
      1 N         142.9081  142.5121  160.8403 N.3     1  UNL1       -0.2712
      2 C         143.4460  141.1818  160.4033 C.3     1  UNL1        0.0738
      3 C         143.6166  140.3272  161.6242 C.3     1  UNL1        0.0372
      4 C         144.0545  138.9768  162.1088 C.3     1  UNL1        0.0245
      5 C         143.8927  138.9443  163.5997 C.3     1  UNL1        0.0909
      6 N         143.3548  140.2747  164.0366 N.pl3   1  UNL1       -0.3077
      7 C         143.1842  141.1293  162.8157 C.3     1  UNL1        0.0901
      8 C         142.7463  142.4797  162.3312 C.3     1  UNL1        0.0921
      9 C         143.0423  140.6794  165.4468 C.ar    1  UNL1        0.0480
     10 C         143.4353  142.0399  165.9412 C.ar    1  UNL1        0.0176
     11 C         143.1228  142.4446  167.3514 C.ar    1  UNL1        0.0385
     12 C         142.4174  141.4887  168.2671 C.ar    1  UNL1        0.1469
     13 C         142.0245  140.1281  167.7727 C.ar    1  UNL1        0.0385
     14 C         142.3369  139.7234  166.3626 C.ar    1  UNL1        0.0176
     15 O         142.1050  141.8934  169.6773 O.3     1  UNL1       -0.4045
     16 C         141.5144  143.2436  169.9568 C.3     1  UNL1        0.5753
     17 F         140.9237  144.5938  170.2363 F       1  UNL1       -0.1328
     18 F         140.2338  142.8191  169.3010 F       1  UNL1       -0.1328
     19 F         142.7950  143.6680  170.6126 F       1  UNL1       -0.1328
     20 C         142.5882  143.6713  159.9437 C.3     1  UNL1        0.0731
     21 C         141.1969  144.2309  159.9089 C.3     1  UNL1        0.0294
     22 C         140.8025  145.3204  160.8615 C.3     1  UNL1        0.0666
     23 S         139.6430  145.1200  161.7916 S.3     1  UNL1       -0.0756
     24 C         138.8140  141.9746  161.5287 C.3     1  UNL1        0.1340
     25 N         139.3437  142.6468  162.7606 N.ar    1  UNL1       -0.2872
     26 C         139.7247  144.0925  162.8815 C.ar    1  UNL1        0.1933
     27 N         140.2019  144.3305  164.2835 N.ar    1  UNL1       -0.1221
     28 N         140.1158  143.0318  165.0291 N.ar    1  UNL1       -0.1266
     29 C         139.5854  141.9912  164.0880 C.ar    1  UNL1        0.1862
     30 C         139.3398  140.5483  164.4165 C.ar    1  UNL1        0.1362
     31 C         138.4297  140.1819  165.5511 C.ar    1  UNL1        0.1211
     32 N         138.1841  138.7390  165.8796 N.ar    1  UNL1       -0.2390
     33 C         138.8487  137.6627  165.0733 C.ar    1  UNL1        0.1195
     34 C         139.7587  138.0292  163.9387 C.ar    1  UNL1        0.1196
     35 N         140.0043  139.4721  163.6103 N.ar    1  UNL1       -0.2375
@<TRIPOS>BOND
     1    24    25    1
     2    25    26   ar
     3    26    23    1
     4    23    22    1
     5    22    21    1
     6    21    20    1
     7    20     1    1
     8     1     2    1
     9     2     3    1
    10     3     4    1
    11     4     5    1
    12     5     6    1
    13     6     9    1
    14     9    10   ar
    15    10    11   ar
    16    11    12   ar
    17    12    15    1
    18    15    16    1
    19    16    17    1
    20    16    18    1
    21    16    19    1
    22    12    13   ar
    23    13    14   ar
    24     6     7    1
    25     7     8    1
    26    26    27   ar
    27    27    28   ar
    28    28    29   ar
    29    29    30    1
    30    30    31   ar
    31    31    32   ar
    32    32    33   ar
    33    33    34   ar
    34    34    35   ar
    35    29    25   ar
    36    35    30   ar
    37     8     1    1
    38     7     3    1
    39    14     9   ar
@<TRIPOS>MOLECULE
*****
 35 39 0 0 0
SMALL
GASTEIGER

@<TRIPOS>ATOM
      1 N         138.5494  139.4412  161.7516 N.3     1  UNL1       -0.2712
      2 C         139.2339  138.1138  161.6115 C.3     1  UNL1        0.0738
      3 C         140.1167  137.9190  162.8084 C.3     1  UNL1        0.0372
      4 C         141.0854  136.9783  163.4616 C.3     1  UNL1        0.0245
      5 C         141.5452  137.6037  164.7452 C.3     1  UNL1        0.0909
      6 N         140.8607  138.9312  164.8852 N.pl3   1  UNL1       -0.3077
      7 C         139.9779  139.1260  163.6882 C.3     1  UNL1        0.0901
      8 C         139.0092  140.0667  163.0351 C.3     1  UNL1        0.0921
      9 C         141.0294  139.8945  166.0225 C.ar    1  UNL1        0.0480
     10 C         140.0152  140.9770  166.2453 C.ar    1  UNL1        0.0176
     11 C         140.1840  141.9403  167.3825 C.ar    1  UNL1        0.0385
     12 C         141.3669  141.8213  168.2970 C.ar    1  UNL1        0.1469
     13 C         142.3812  140.7389  168.0743 C.ar    1  UNL1        0.0385
     14 C         142.2125  139.7755  166.9370 C.ar    1  UNL1        0.0176
     15 O         141.5357  142.7847  169.4343 O.3     1  UNL1       -0.4045
     16 C         140.3640  143.1299  170.3050 C.3     1  UNL1        0.5753
     17 F         139.1923  143.4750  171.1757 F       1  UNL1       -0.1328
     18 F         140.4108  144.5441  169.8072 F       1  UNL1       -0.1328
     19 F         140.3173  141.7156  170.8027 F       1  UNL1       -0.1328
     20 C         137.5760  140.0383  160.7789 C.3     1  UNL1        0.0731
     21 C         137.9050  140.0756  159.3159 C.3     1  UNL1        0.0294
     22 C         138.9895  140.9822  158.8138 C.3     1  UNL1        0.0666
     23 S         138.9542  142.4459  159.1400 S.3     1  UNL1       -0.0756
     24 C         142.0059  142.2920  160.2857 C.3     1  UNL1        0.1340
     25 N         140.8195  142.8554  161.0103 N.ar    1  UNL1       -0.2872
     26 C         139.4168  142.9261  160.4836 C.ar    1  UNL1        0.1933
     27 N         138.5578  143.5614  161.5365 N.ar    1  UNL1       -0.1221
     28 N         139.4297  143.8834  162.7139 N.ar    1  UNL1       -0.1266
     29 C         140.8275  143.4470  162.3887 C.ar    1  UNL1        0.1862
     30 C         142.0233  143.5791  163.2846 C.ar    1  UNL1        0.1362
     31 C         142.6824  144.9146  163.4637 C.ar    1  UNL1        0.1211
     32 N         143.8782  145.0467  164.3596 N.ar    1  UNL1       -0.2390
     33 C         144.4149  143.8432  165.0763 C.ar    1  UNL1        0.1195
     34 C         143.7558  142.5077  164.8972 C.ar    1  UNL1        0.1196
     35 N         142.5600  142.3757  164.0013 N.ar    1  UNL1       -0.2375
@<TRIPOS>BOND
     1    24    25    1
     2    25    26   ar
     3    26    23    1
     4    23    22    1
     5    22    21    1
     6    21    20    1
     7    20     1    1
     8     1     2    1
     9     2     3    1
    10     3     4    1
    11     4     5    1
    12     5     6    1
    13     6     9    1
    14     9    10   ar
    15    10    11   ar
    16    11    12   ar
    17    12    15    1
    18    15    16    1
    19    16    17    1
    20    16    18    1
    21    16    19    1
    22    12    13   ar
    23    13    14   ar
    24     6     7    1
    25     7     8    1
    26    26    27   ar
    27    27    28   ar
    28    28    29   ar
    29    29    30    1
    30    30    31   ar
    31    31    32   ar
    32    32    33   ar
    33    33    34   ar
    34    34    35   ar
    35    29    25   ar
    36    35    30   ar
    37     8     1    1
    38     7     3    1
    39    14     9   ar
@<TRIPOS>MOLECULE
*****
 35 39 0 0 0
SMALL
GASTEIGER

@<TRIPOS>ATOM
      1 N         140.2284  138.5488  161.5056 N.3     1  UNL1       -0.2712
      2 C         141.6705  138.4398  161.1075 C.3     1  UNL1        0.0738
      3 C         142.5076  138.6699  162.3308 C.3     1  UNL1        0.0372
      4 C         143.9162  138.7447  162.8409 C.3     1  UNL1        0.0245
      5 C         143.8621  139.0420  164.3102 C.3     1  UNL1        0.0909
      6 N         142.4199  139.1510  164.7081 N.pl3   1  UNL1       -0.3077
      7 C         141.5828  138.9210  163.4849 C.3     1  UNL1        0.0901
      8 C         140.1742  138.8461  162.9748 C.3     1  UNL1        0.0921
      9 C         141.9052  139.4393  166.0873 C.ar    1  UNL1        0.0480
     10 C         142.8287  139.3518  167.2660 C.ar    1  UNL1        0.0176
     11 C         142.3140  139.6401  168.6451 C.ar    1  UNL1        0.0385
     12 C         140.8758  140.0159  168.8455 C.ar    1  UNL1        0.1469
     13 C         139.9522  140.1035  167.6668 C.ar    1  UNL1        0.0385
     14 C         140.4669  139.8151  166.2876 C.ar    1  UNL1        0.0176
     15 O         140.3611  140.3043  170.2246 O.3     1  UNL1       -0.4045
     16 C         139.8630  141.6769  170.5675 C.3     1  UNL1        0.5753
     17 F         139.3648  143.0497  170.9103 F       1  UNL1       -0.1328
     18 F         138.4605  141.2458  170.2559 F       1  UNL1       -0.1328
     19 F         141.2656  142.1081  170.8790 F       1  UNL1       -0.1328
     20 C         139.0478  138.3885  160.5943 C.3     1  UNL1        0.0731
     21 C         138.1034  139.5344  160.3818 C.3     1  UNL1        0.0294
     22 C         138.1159  140.2859  159.0837 C.3     1  UNL1        0.0666
     23 S         138.4391  141.7506  159.0682 S.3     1  UNL1       -0.0756
     24 C         141.5265  141.8550  160.1203 C.3     1  UNL1        0.1340
     25 N         140.3415  142.4732  160.8013 N.ar    1  UNL1       -0.2872
     26 C         138.9224  142.4252  160.3177 C.ar    1  UNL1        0.1933
     27 N         138.0714  143.1703  161.3029 N.ar    1  UNL1       -0.1221
     28 N         138.9646  143.6788  162.3955 N.ar    1  UNL1       -0.1266
     29 C         140.3676  143.2480  162.0855 C.ar    1  UNL1        0.1862
     30 C         141.5832  143.5405  162.9142 C.ar    1  UNL1        0.1362
     31 C         141.9449  142.6411  164.0588 C.ar    1  UNL1        0.1211
     32 N         143.1605  142.9336  164.8875 N.ar    1  UNL1       -0.2390
     33 C         144.0144  144.1258  164.5715 C.ar    1  UNL1        0.1195
     34 C         143.6527  145.0252  163.4269 C.ar    1  UNL1        0.1196
     35 N         142.4371  144.7326  162.5982 N.ar    1  UNL1       -0.2375
@<TRIPOS>BOND
     1    24    25    1
     2    25    26   ar
     3    26    23    1
     4    23    22    1
     5    22    21    1
     6    21    20    1
     7    20     1    1
     8     1     2    1
     9     2     3    1
    10     3     4    1
    11     4     5    1
    12     5     6    1
    13     6     9    1
    14     9    10   ar
    15    10    11   ar
    16    11    12   ar
    17    12    15    1
    18    15    16    1
    19    16    17    1
    20    16    18    1
    21    16    19    1
    22    12    13   ar
    23    13    14   ar
    24     6     7    1
    25     7     8    1
    26    26    27   ar
    27    27    28   ar
    28    28    29   ar
    29    29    30    1
    30    30    31   ar
    31    31    32   ar
    32    32    33   ar
    33    33    34   ar
    34    34    35   ar
    35    29    25   ar
    36    35    30   ar
    37     8     1    1
    38     7     3    1
    39    14     9   ar
@<TRIPOS>MOLECULE
*****
 35 39 0 0 0
SMALL
GASTEIGER

@<TRIPOS>ATOM
      1 N         142.2543  143.9054  161.8441 N.3     1  UNL1       -0.2712
      2 C         143.5559  143.3603  161.3353 C.3     1  UNL1        0.0738
      3 C         144.0872  142.3996  162.3574 C.3     1  UNL1        0.0372
      4 C         145.2200  141.4690  162.6747 C.3     1  UNL1        0.0245
      5 C         144.9470  140.8451  164.0112 C.3     1  UNL1        0.0909
      6 N         143.6454  141.3902  164.5199 N.pl3   1  UNL1       -0.3077
      7 C         143.1141  142.3509  163.4978 C.3     1  UNL1        0.0901
      8 C         141.9813  143.2815  163.1806 C.3     1  UNL1        0.0921
      9 C         142.9902  141.0366  165.8221 C.ar    1  UNL1        0.0480
     10 C         143.1460  139.6570  166.3898 C.ar    1  UNL1        0.0176
     11 C         142.4908  139.3034  167.6920 C.ar    1  UNL1        0.0385
     12 C         141.6798  140.3295  168.4265 C.ar    1  UNL1        0.1469
     13 C         141.5240  141.7092  167.8588 C.ar    1  UNL1        0.0385
     14 C         142.1792  142.0627  166.5566 C.ar    1  UNL1        0.0176
     15 O         141.0246  139.9759  169.7287 O.3     1  UNL1       -0.4045
     16 C         140.7763  141.0397  170.7566 C.3     1  UNL1        0.5753
     17 F         140.5281  142.1036  171.7845 F       1  UNL1       -0.1328
     18 F         139.3520  141.1491  170.2992 F       1  UNL1       -0.1328
     19 F         142.2008  140.9303  171.2139 F       1  UNL1       -0.1328
     20 C         141.3794  144.8998  161.1399 C.3     1  UNL1        0.0731
     21 C         141.3637  144.9559  159.6411 C.3     1  UNL1        0.0294
     22 C         140.1039  144.6371  158.8917 C.3     1  UNL1        0.0666
     23 S         139.5766  143.2330  158.8743 S.3     1  UNL1       -0.0756
     24 C         140.8746  140.7360  160.5264 C.3     1  UNL1        0.1340
     25 N         139.6210  141.4759  160.8881 N.ar    1  UNL1       -0.2872
     26 C         139.0243  142.6237  160.1288 C.ar    1  UNL1        0.1933
     27 N         137.7785  143.0552  160.8441 N.ar    1  UNL1       -0.1221
     28 N         137.6052  142.1741  162.0456 N.ar    1  UNL1       -0.1266
     29 C         138.7439  141.1981  162.0729 C.ar    1  UNL1        0.1862
     30 C         138.9664  140.1314  163.1038 C.ar    1  UNL1        0.1362
     31 C         139.4215  140.5050  164.4834 C.ar    1  UNL1        0.1211
     32 N         139.6440  139.4384  165.5143 N.ar    1  UNL1       -0.2390
     33 C         139.4113  137.9981  165.1656 C.ar    1  UNL1        0.1195
     34 C         138.9561  137.6245  163.7860 C.ar    1  UNL1        0.1196
     35 N         138.7337  138.6912  162.7551 N.ar    1  UNL1       -0.2375
@<TRIPOS>BOND
     1    24    25    1
     2    25    26   ar
     3    26    23    1
     4    23    22    1
     5    22    21    1
     6    21    20    1
     7    20     1    1
     8     1     2    1
     9     2     3    1
    10     3     4    1
    11     4     5    1
    12     5     6    1
    13     6     9    1
    14     9    10   ar
    15    10    11   ar
    16    11    12   ar
    17    12    15    1
    18    15    16    1
    19    16    17    1
    20    16    18    1
    21    16    19    1
    22    12    13   ar
    23    13    14   ar
    24     6     7    1
    25     7     8    1
    26    26    27   ar
    27    27    28   ar
    28    28    29   ar
    29    29    30    1
    30    30    31   ar
    31    31    32   ar
    32    32    33   ar
    33    33    34   ar
    34    34    35   ar
    35    29    25   ar
    36    35    30   ar
    37     8     1    1
    38     7     3    1
    39    14     9   ar
@<TRIPOS>MOLECULE
*****
 35 39 0 0 0
SMALL
GASTEIGER

@<TRIPOS>ATOM
      1 N         143.2597  138.7406  161.5587 N.3     1  UNL1       -0.2712
      2 C         144.3430  139.7112  161.1923 C.3     1  UNL1        0.0738
      3 C         144.5938  140.5952  162.3779 C.3     1  UNL1        0.0372
      4 C         145.4183  141.7414  162.8842 C.3     1  UNL1        0.0245
      5 C         144.9996  142.0255  164.2964 C.3     1  UNL1        0.0909
      6 N         143.9163  141.0547  164.6628 N.pl3   1  UNL1       -0.3077
      7 C         143.6655  140.1708  163.4771 C.3     1  UNL1        0.0901
      8 C         142.8410  139.0245  162.9708 C.3     1  UNL1        0.0921
      9 C         143.2082  140.9809  165.9831 C.ar    1  UNL1        0.0480
     10 C         142.8910  142.2392  166.7354 C.ar    1  UNL1        0.0176
     11 C         142.1829  142.1654  168.0556 C.ar    1  UNL1        0.0385
     12 C         141.7920  140.8333  168.6236 C.ar    1  UNL1        0.1469
     13 C         142.1091  139.5749  167.8713 C.ar    1  UNL1        0.0385
     14 C         142.8173  139.6487  166.5510 C.ar    1  UNL1        0.0176
     15 O         141.0838  140.7595  169.9439 O.3     1  UNL1       -0.4045
     16 C         139.6186  140.4423  169.9923 C.3     1  UNL1        0.5753
     17 F         138.1532  140.1252  170.0408 F       1  UNL1       -0.1328
     18 F         139.8289  139.6639  171.2571 F       1  UNL1       -0.1328
     19 F         139.4083  141.2208  168.7275 F       1  UNL1       -0.1328
     20 C         142.6944  137.6732  160.6692 C.3     1  UNL1        0.0731
     21 C         142.4571  137.9564  159.2155 C.3     1  UNL1        0.0294
     22 C         141.4069  138.9460  158.8057 C.3     1  UNL1        0.0666
     23 S         140.0043  138.8067  159.3187 S.3     1  UNL1       -0.0756
     24 C         139.8781  141.9503  160.1855 C.3     1  UNL1        0.1340
     25 N         139.5889  140.7780  161.0755 N.ar    1  UNL1       -0.2872
     26 C         139.6468  139.3331  160.6771 C.ar    1  UNL1        0.1933
     27 N         139.2846  138.5069  161.8755 N.ar    1  UNL1       -0.1221
     28 N         139.0028  139.4412  163.0146 N.ar    1  UNL1       -0.1266
     29 C         139.1908  140.8449  162.5202 C.ar    1  UNL1        0.1862
     30 C         139.0121  142.0958  163.3286 C.ar    1  UNL1        0.1362
     31 C         137.9243  143.0669  162.9772 C.ar    1  UNL1        0.1211
     32 N         137.7456  144.3177  163.7855 N.ar    1  UNL1       -0.2390
     33 C         138.6549  144.5974  164.9454 C.ar    1  UNL1        0.1195
     34 C         139.7428  143.6263  165.2968 C.ar    1  UNL1        0.1196
     35 N         139.9214  142.3754  164.4883 N.ar    1  UNL1       -0.2375
@<TRIPOS>BOND
     1    24    25    1
     2    25    26   ar
     3    26    23    1
     4    23    22    1
     5    22    21    1
     6    21    20    1
     7    20     1    1
     8     1     2    1
     9     2     3    1
    10     3     4    1
    11     4     5    1
    12     5     6    1
    13     6     9    1
    14     9    10   ar
    15    10    11   ar
    16    11    12   ar
    17    12    15    1
    18    15    16    1
    19    16    17    1
    20    16    18    1
    21    16    19    1
    22    12    13   ar
    23    13    14   ar
    24     6     7    1
    25     7     8    1
    26    26    27   ar
    27    27    28   ar
    28    28    29   ar
    29    29    30    1
    30    30    31   ar
    31    31    32   ar
    32    32    33   ar
    33    33    34   ar
    34    34    35   ar
    35    29    25   ar
    36    35    30   ar
    37     8     1    1
    38     7     3    1
    39    14     9   ar
@<TRIPOS>MOLECULE
*****
 35 39 0 0 0
SMALL
GASTEIGER

@<TRIPOS>ATOM
      1 N         138.1410  141.0701  161.2226 N.3     1  UNL1       -0.2712
      2 C         138.0608  142.5634  161.1053 C.3     1  UNL1        0.0738
      3 C         138.4390  143.1535  162.4315 C.3     1  UNL1        0.0372
      4 C         138.6231  144.4411  163.1786 C.3     1  UNL1        0.0245
      5 C         139.0509  144.1084  164.5773 C.3     1  UNL1        0.0909
      6 N         139.1312  142.6150  164.6946 N.pl3   1  UNL1       -0.3077
      7 C         138.7530  142.0249  163.3684 C.3     1  UNL1        0.0901
      8 C         138.5688  140.7373  162.6213 C.3     1  UNL1        0.0921
      9 C         139.5212  141.8468  165.9225 C.ar    1  UNL1        0.0480
     10 C         140.5089  142.4293  166.8894 C.ar    1  UNL1        0.0176
     11 C         140.8989  141.6611  168.1173 C.ar    1  UNL1        0.0385
     12 C         140.3011  140.3103  168.3783 C.ar    1  UNL1        0.1469
     13 C         139.3134  139.7277  167.4113 C.ar    1  UNL1        0.0385
     14 C         138.9234  140.4960  166.1834 C.ar    1  UNL1        0.0176
     15 O         140.6911  139.5421  169.6062 O.3     1  UNL1       -0.4045
     16 C         142.0606  139.7124  170.1940 C.3     1  UNL1        0.5753
     17 F         143.4300  139.8828  170.7819 F       1  UNL1       -0.1328
     18 F         142.6304  138.8320  169.1216 F       1  UNL1       -0.1328
     19 F         141.4906  140.5930  171.2664 F       1  UNL1       -0.1328
     20 C         137.8454  140.0829  160.1327 C.3     1  UNL1        0.0731
     21 C         138.2471  140.3837  158.7191 C.3     1  UNL1        0.0294
     22 C         139.4432  139.7061  158.1188 C.3     1  UNL1        0.0666
     23 S         140.8068  140.3098  158.2802 S.3     1  UNL1       -0.0756
     24 C         141.8486  138.1969  160.5385 C.3     1  UNL1        0.1340
     25 N         141.7938  139.6887  160.6854 N.ar    1  UNL1       -0.2872
     26 C         141.3150  140.6599  159.6473 C.ar    1  UNL1        0.1933
     27 N         141.4335  142.0427  160.2165 N.ar    1  UNL1       -0.1221
     28 N         141.9856  141.9261  161.6063 N.ar    1  UNL1       -0.1266
     29 C         142.2083  140.4713  161.8961 C.ar    1  UNL1        0.1862
     30 C         142.7504  139.8994  163.1726 C.ar    1  UNL1        0.1362
     31 C         144.2326  139.7913  163.3761 C.ar    1  UNL1        0.1211
     32 N         144.7746  139.2195  164.6525 N.ar    1  UNL1       -0.2390
     33 C         143.8343  138.7558  165.7254 C.ar    1  UNL1        0.1195
     34 C         142.3521  138.8639  165.5218 C.ar    1  UNL1        0.1196
     35 N         141.8102  139.4357  164.2454 N.ar    1  UNL1       -0.2375
@<TRIPOS>BOND
     1    24    25    1
     2    25    26   ar
     3    26    23    1
     4    23    22    1
     5    22    21    1
     6    21    20    1
     7    20     1    1
     8     1     2    1
     9     2     3    1
    10     3     4    1
    11     4     5    1
    12     5     6    1
    13     6     9    1
    14     9    10   ar
    15    10    11   ar
    16    11    12   ar
    17    12    15    1
    18    15    16    1
    19    16    17    1
    20    16    18    1
    21    16    19    1
    22    12    13   ar
    23    13    14   ar
    24     6     7    1
    25     7     8    1
    26    26    27   ar
    27    27    28   ar
    28    28    29   ar
    29    29    30    1
    30    30    31   ar
    31    31    32   ar
    32    32    33   ar
    33    33    34   ar
    34    34    35   ar
    35    29    25   ar
    36    35    30   ar
    37     8     1    1
    38     7     3    1
    39    14     9   ar
