@<TRIPOS>MOLECULE
*****
 46 53 0 0 0
SMALL
GASTEIGER

@<TRIPOS>ATOM
      1 C         141.4258  141.1645  162.7731 C.ar    1  UNL1        0.0176
      2 C         140.2569  140.5033  162.1052 C.ar    1  UNL1        0.0012
      3 C         140.2550  140.3075  160.6180 C.ar    1  UNL1       -0.0029
      4 C         141.4221  140.7730  159.7988 C.ar    1  UNL1       -0.0061
      5 C         142.5911  141.4342  160.4668 C.ar    1  UNL1       -0.0029
      6 C         142.5930  141.6300  161.9539 C.ar    1  UNL1        0.0012
      7 O         142.3191  140.6130  172.2572 O.3     1  UNL1       -0.4783
      8 C         141.8733  141.3598  171.0351 C.ar    1  UNL1        0.3209
      9 N         141.2130  142.7065  171.0167 N.ar    1  UNL1       -0.0915
     10 N         140.9411  143.0700  169.5870 N.ar    1  UNL1       -0.1255
     11 C         141.4334  141.9479  168.7218 C.ar    1  UNL1        0.1741
     12 C         141.4315  141.7521  167.2346 C.ar    1  UNL1        0.0541
     13 C         140.8554  142.8090  166.3397 C.ar    1  UNL1        0.0061
     14 C         140.8535  142.6132  164.8525 C.ar    1  UNL1        0.0178
     15 C         141.4277  141.3603  164.2603 C.ar    1  UNL1        0.0812
     16 N         142.0038  140.3034  165.1552 N.ar    1  UNL1       -0.2452
     17 C         142.0058  140.4993  166.6424 C.ar    1  UNL1        0.0857
     18 C         142.5818  139.4424  167.5373 C.ar    1  UNL1        0.0384
     19 C         142.5838  139.6382  169.0246 C.ar    1  UNL1        0.0874
     20 N         142.0095  140.8910  169.6167 N.ar    1  UNL1       -0.2427
     21 H         142.1921  140.9868  173.1070 H       1  UNL1        0.2953
     22 C         140.2774  143.6702  163.9576 C.ar    1  UNL1        0.0015
     23 C         141.1697  144.7220  163.3682 C.ar    1  UNL1        0.0000
     24 C         140.5935  145.7789  162.4734 C.ar    1  UNL1        0.0000
     25 C         139.1249  145.7841  162.1678 C.ar    1  UNL1        0.0000
     26 C         138.2326  144.7323  162.7572 C.ar    1  UNL1        0.0000
     27 C         138.8088  143.6753  163.6521 C.ar    1  UNL1        0.0000
     28 C         141.4202  140.5772  158.3116 C.3     1  UNL1        0.0991
     29 N         141.5399  139.1968  157.7368 N.3     1  UNL1       -0.2689
     30 C         142.8414  138.4567  157.8275 C.3     1  UNL1        0.0728
     31 C         142.9609  137.0765  157.2526 C.3     1  UNL1        0.0249
     32 C         141.7789  136.4362  156.5870 C.3     1  UNL1        0.0613
     33 C         140.4774  137.1763  156.4964 C.3     1  UNL1        0.0249
     34 C         140.3578  138.5566  157.0712 C.3     1  UNL1        0.0728
     35 C         141.8984  135.0560  156.0122 C.ar    1  UNL1        0.1396
     36 N         141.1875  134.5431  154.7950 N.ar    1  UNL1       -0.1335
     37 N         141.5996  133.1164  154.5841 N.ar    1  UNL1       -0.1277
     38 C         142.5652  132.7473  155.6710 C.ar    1  UNL1        0.1807
     39 N         142.7499  133.9460  156.5536 N.ar    1  UNL1       -0.3234
     40 H         143.3284  133.9956  157.3487 H       1  UNL1        0.1686
     41 C         143.2295  131.4138  155.8449 C.ar    1  UNL1        0.1169
     42 C         144.1535  130.8922  154.7846 C.ar    1  UNL1        0.0223
     43 C         144.8178  129.5586  154.9585 C.ar    1  UNL1        0.0032
     44 C         144.5581  128.7465  156.1926 C.ar    1  UNL1        0.0207
     45 C         143.6341  129.2681  157.2529 C.ar    1  UNL1        0.0989
     46 N         142.9697  130.6017  157.0790 N.ar    1  UNL1       -0.2407
@<TRIPOS>BOND
     1     7     8    1
     2     8     9   ar
     3     9    10   ar
     4    10    11   ar
     5    11    12   ar
     6    12    13   ar
     7    13    14   ar
     8    14    22    1
     9    22    23   ar
    10    23    24   ar
    11    24    25   ar
    12    25    26   ar
    13    26    27   ar
    14    14    15   ar
    15    15     1    1
    16     1     2   ar
    17     2     3   ar
    18     3     4   ar
    19     4    28    1
    20    28    29    1
    21    29    30    1
    22    30    31    1
    23    31    32    1
    24    32    35    1
    25    35    36   ar
    26    36    37   ar
    27    37    38   ar
    28    38    41    1
    29    41    42   ar
    30    42    43   ar
    31    43    44   ar
    32    44    45   ar
    33    45    46   ar
    34    38    39   ar
    35    32    33    1
    36    33    34    1
    37     4     5   ar
    38     5     6   ar
    39    15    16   ar
    40    16    17   ar
    41    17    18   ar
    42    18    19   ar
    43    19    20   ar
    44    20     8   ar
    45    20    11   ar
    46    17    12   ar
    47    27    22   ar
    48     6     1   ar
    49    34    29    1
    50    39    35   ar
    51    46    41   ar
    52     7    21    1
    53    39    40    1
@<TRIPOS>MOLECULE
*****
 46 53 0 0 0
SMALL
GASTEIGER

@<TRIPOS>ATOM
      1 C         141.3732  141.2338  162.7362 C.ar    1  UNL1        0.0176
      2 C         142.5853  141.5895  161.9275 C.ar    1  UNL1        0.0012
      3 C         142.5734  141.4079  160.4386 C.ar    1  UNL1       -0.0029
      4 C         141.3493  140.8705  159.7584 C.ar    1  UNL1       -0.0061
      5 C         140.1371  140.5147  160.5672 C.ar    1  UNL1       -0.0029
      6 C         140.1491  140.6963  162.0561 C.ar    1  UNL1        0.0012
      7 O         142.3055  140.5800  172.2101 O.3     1  UNL1       -0.4783
      8 C         141.8640  141.3444  170.9973 C.ar    1  UNL1        0.3209
      9 N         141.2221  142.7001  170.9949 N.ar    1  UNL1       -0.0915
     10 N         140.9482  143.0809  169.5701 N.ar    1  UNL1       -0.1255
     11 C         141.4208  141.9604  168.6919 C.ar    1  UNL1        0.1741
     12 C         141.4089  141.7787  167.2030 C.ar    1  UNL1        0.0541
     13 C         140.8430  142.8519  166.3210 C.ar    1  UNL1        0.0061
     14 C         140.8311  142.6702  164.8321 C.ar    1  UNL1        0.0178
     15 C         141.3851  141.4154  164.2252 C.ar    1  UNL1        0.0812
     16 N         141.9511  140.3423  165.1072 N.ar    1  UNL1       -0.2452
     17 C         141.9630  140.5239  166.5961 C.ar    1  UNL1        0.0857
     18 C         142.5289  139.4508  167.4781 C.ar    1  UNL1        0.0384
     19 C         142.5408  139.6324  168.9671 C.ar    1  UNL1        0.0874
     20 N         141.9868  140.8873  169.5739 N.ar    1  UNL1       -0.2427
     21 H         142.1877  140.9474  173.0639 H       1  UNL1        0.2953
     22 C         140.2651  143.7435  163.9501 C.ar    1  UNL1        0.0015
     23 C         141.1710  144.7800  163.3543 C.ar    1  UNL1        0.0000
     24 C         140.6050  145.8531  162.4724 C.ar    1  UNL1        0.0000
     25 C         139.1329  145.8899  162.1862 C.ar    1  UNL1        0.0000
     26 C         138.2270  144.8534  162.7820 C.ar    1  UNL1        0.0000
     27 C         138.7931  143.7802  163.6639 C.ar    1  UNL1        0.0000
     28 C         141.3373  140.6888  158.2695 C.3     1  UNL1        0.0991
     29 N         141.5438  139.3256  157.6786 N.3     1  UNL1       -0.2689
     30 C         140.3605  138.4739  157.3260 C.3     1  UNL1        0.0728
     31 C         140.5670  137.1108  156.7352 C.3     1  UNL1        0.0249
     32 C         141.9569  136.5993  156.4969 C.3     1  UNL1        0.0613
     33 C         143.1402  137.4510  156.8495 C.3     1  UNL1        0.0249
     34 C         142.9336  138.8142  157.4404 C.3     1  UNL1        0.0728
     35 C         142.1634  135.2362  155.9061 C.ar    1  UNL1        0.1396
     36 N         143.4678  134.5004  155.8210 N.ar    1  UNL1       -0.1335
     37 N         143.2124  133.1790  155.1589 N.ar    1  UNL1       -0.1277
     38 C         141.7501  133.0979  154.8347 C.ar    1  UNL1        0.1807
     39 N         141.1018  134.3693  155.2965 N.ar    1  UNL1       -0.3234
     40 H         140.1471  134.5952  155.2139 H       1  UNL1        0.1686
     41 C         141.0576  131.9475  154.1662 C.ar    1  UNL1        0.1169
     42 C         140.6926  130.7280  154.9597 C.ar    1  UNL1        0.0223
     43 C         140.0002  129.5776  154.2911 C.ar    1  UNL1        0.0032
     44 C         139.6726  129.6467  152.8289 C.ar    1  UNL1        0.0207
     45 C         140.0376  130.8661  152.0353 C.ar    1  UNL1        0.0989
     46 N         140.7301  132.0166  152.7040 N.ar    1  UNL1       -0.2407
@<TRIPOS>BOND
     1     7     8    1
     2     8     9   ar
     3     9    10   ar
     4    10    11   ar
     5    11    12   ar
     6    12    13   ar
     7    13    14   ar
     8    14    22    1
     9    22    23   ar
    10    23    24   ar
    11    24    25   ar
    12    25    26   ar
    13    26    27   ar
    14    14    15   ar
    15    15     1    1
    16     1     2   ar
    17     2     3   ar
    18     3     4   ar
    19     4    28    1
    20    28    29    1
    21    29    30    1
    22    30    31    1
    23    31    32    1
    24    32    35    1
    25    35    36   ar
    26    36    37   ar
    27    37    38   ar
    28    38    41    1
    29    41    42   ar
    30    42    43   ar
    31    43    44   ar
    32    44    45   ar
    33    45    46   ar
    34    38    39   ar
    35    32    33    1
    36    33    34    1
    37     4     5   ar
    38     5     6   ar
    39    15    16   ar
    40    16    17   ar
    41    17    18   ar
    42    18    19   ar
    43    19    20   ar
    44    20     8   ar
    45    20    11   ar
    46    17    12   ar
    47    27    22   ar
    48     6     1   ar
    49    34    29    1
    50    39    35   ar
    51    46    41   ar
    52     7    21    1
    53    39    40    1
@<TRIPOS>MOLECULE
*****
 46 53 0 0 0
SMALL
GASTEIGER

@<TRIPOS>ATOM
      1 C         142.2655  140.1693  162.8858 C.ar    1  UNL1        0.0176
      2 C         141.9719  141.3322  161.9852 C.ar    1  UNL1        0.0012
      3 C         142.5096  141.3509  160.5849 C.ar    1  UNL1       -0.0029
      4 C         143.3409  140.2066  160.0855 C.ar    1  UNL1       -0.0061
      5 C         143.6345  139.0437  160.9863 C.ar    1  UNL1       -0.0029
      6 C         143.0968  139.0250  162.3864 C.ar    1  UNL1        0.0012
      7 O         140.7338  140.4770  172.2991 O.3     1  UNL1       -0.4783
      8 C         140.2190  140.2771  170.9045 C.ar    1  UNL1        0.3209
      9 N         138.8036  139.9573  170.5245 N.ar    1  UNL1       -0.0915
     10 N         138.7389  139.8444  169.0302 N.ar    1  UNL1       -0.1255
     11 C         140.1144  140.0944  168.4865 C.ar    1  UNL1        0.1741
     12 C         140.6522  140.1132  167.0864 C.ar    1  UNL1        0.0541
     13 C         139.7375  139.8458  165.9280 C.ar    1  UNL1        0.0061
     14 C         140.2753  139.8645  164.5278 C.ar    1  UNL1        0.0178
     15 C         141.7277  140.1506  164.2861 C.ar    1  UNL1        0.0812
     16 N         142.6424  140.4180  165.4444 N.ar    1  UNL1       -0.2452
     17 C         142.1046  140.3993  166.8446 C.ar    1  UNL1        0.0857
     18 C         143.0193  140.6667  168.0029 C.ar    1  UNL1        0.0384
     19 C         142.4815  140.6480  169.4032 C.ar    1  UNL1        0.0874
     20 N         141.0291  140.3618  169.6449 N.ar    1  UNL1       -0.2427
     21 H         140.1505  140.4042  173.0288 H       1  UNL1        0.2953
     22 C         139.3605  139.5971  163.3695 C.ar    1  UNL1        0.0015
     23 C         138.5842  140.7220  162.7515 C.ar    1  UNL1        0.0000
     24 C         137.6695  140.4545  161.5933 C.ar    1  UNL1        0.0000
     25 C         137.5310  139.0620  161.0528 C.ar    1  UNL1        0.0000
     26 C         138.3073  137.9371  161.6708 C.ar    1  UNL1        0.0000
     27 C         139.2220  138.2046  162.8292 C.ar    1  UNL1        0.0000
     28 C         143.8787  140.2253  158.6853 C.3     1  UNL1        0.0991
     29 N         143.4550  139.1718  157.7052 N.3     1  UNL1       -0.2689
     30 C         142.6724  137.9815  158.1749 C.3     1  UNL1        0.0728
     31 C         142.2487  136.9281  157.1948 C.3     1  UNL1        0.0249
     32 C         142.6076  137.0650  155.7447 C.3     1  UNL1        0.0613
     33 C         143.3902  138.2553  155.2750 C.3     1  UNL1        0.0249
     34 C         143.8138  139.3088  156.2552 C.3     1  UNL1        0.0728
     35 C         142.1840  136.0116  154.7646 C.ar    1  UNL1        0.1396
     36 N         142.1318  136.1647  153.2733 N.ar    1  UNL1       -0.1335
     37 N         141.6537  134.8679  152.6906 N.ar    1  UNL1       -0.1277
     38 C         141.4103  133.9132  153.8217 C.ar    1  UNL1        0.1807
     39 N         141.7380  134.6201  155.1034 N.ar    1  UNL1       -0.3234
     40 H         141.6720  134.2379  156.0083 H       1  UNL1        0.1686
     41 C         140.9245  132.5000  153.6936 C.ar    1  UNL1        0.1169
     42 C         141.0521  131.5550  154.8516 C.ar    1  UNL1        0.0223
     43 C         140.5662  130.1417  154.7235 C.ar    1  UNL1        0.0032
     44 C         139.9528  129.6732  153.4373 C.ar    1  UNL1        0.0207
     45 C         139.8252  130.6180  152.2793 C.ar    1  UNL1        0.0989
     46 N         140.3110  132.0315  152.4074 N.ar    1  UNL1       -0.2407
@<TRIPOS>BOND
     1     7     8    1
     2     8     9   ar
     3     9    10   ar
     4    10    11   ar
     5    11    12   ar
     6    12    13   ar
     7    13    14   ar
     8    14    22    1
     9    22    23   ar
    10    23    24   ar
    11    24    25   ar
    12    25    26   ar
    13    26    27   ar
    14    14    15   ar
    15    15     1    1
    16     1     2   ar
    17     2     3   ar
    18     3     4   ar
    19     4    28    1
    20    28    29    1
    21    29    30    1
    22    30    31    1
    23    31    32    1
    24    32    35    1
    25    35    36   ar
    26    36    37   ar
    27    37    38   ar
    28    38    41    1
    29    41    42   ar
    30    42    43   ar
    31    43    44   ar
    32    44    45   ar
    33    45    46   ar
    34    38    39   ar
    35    32    33    1
    36    33    34    1
    37     4     5   ar
    38     5     6   ar
    39    15    16   ar
    40    16    17   ar
    41    17    18   ar
    42    18    19   ar
    43    19    20   ar
    44    20     8   ar
    45    20    11   ar
    46    17    12   ar
    47    27    22   ar
    48     6     1   ar
    49    34    29    1
    50    39    35   ar
    51    46    41   ar
    52     7    21    1
    53    39    40    1
@<TRIPOS>MOLECULE
*****
 46 53 0 0 0
SMALL
GASTEIGER

@<TRIPOS>ATOM
      1 C         141.6025  141.2748  162.8092 C.ar    1  UNL1        0.0176
      2 C         142.8119  141.7268  162.0459 C.ar    1  UNL1        0.0012
      3 C         142.8609  141.5671  160.5551 C.ar    1  UNL1       -0.0029
      4 C         141.7003  140.9554  159.8279 C.ar    1  UNL1       -0.0061
      5 C         140.4908  140.5035  160.5913 C.ar    1  UNL1       -0.0029
      6 C         140.4419  140.6631  162.0820 C.ar    1  UNL1        0.0012
      7 O         142.2640  140.5413  172.3000 O.3     1  UNL1       -0.4783
      8 C         141.8132  141.2933  171.0829 C.ar    1  UNL1        0.3209
      9 N         141.0840  142.6041  171.0762 N.ar    1  UNL1       -0.0915
     10 N         140.8326  142.9875  169.6480 N.ar    1  UNL1       -0.1255
     11 C         141.4065  141.9136  168.7719 C.ar    1  UNL1        0.1741
     12 C         141.4555  141.7539  167.2813 C.ar    1  UNL1        0.0541
     13 C         140.8494  142.8009  166.3945 C.ar    1  UNL1        0.0061
     14 C         140.8985  142.6412  164.9038 C.ar    1  UNL1        0.0178
     15 C         141.5535  141.4345  164.3000 C.ar    1  UNL1        0.0812
     16 N         142.1595  140.3875  165.1867 N.ar    1  UNL1       -0.2452
     17 C         142.1105  140.5471  166.6774 C.ar    1  UNL1        0.0857
     18 C         142.7165  139.5001  167.5642 C.ar    1  UNL1        0.0384
     19 C         142.6676  139.6598  169.0549 C.ar    1  UNL1        0.0874
     20 N         142.0125  140.8666  169.6587 N.ar    1  UNL1       -0.2427
     21 H         142.0943  140.8873  173.1540 H       1  UNL1        0.2953
     22 C         140.2924  143.6883  164.0170 C.ar    1  UNL1        0.0015
     23 C         138.8271  143.6454  163.6990 C.ar    1  UNL1        0.0000
     24 C         138.2212  144.6925  162.8123 C.ar    1  UNL1        0.0000
     25 C         139.0804  145.7826  162.2435 C.ar    1  UNL1        0.0000
     26 C         140.5457  145.8255  162.5616 C.ar    1  UNL1        0.0000
     27 C         141.1517  144.7784  163.4484 C.ar    1  UNL1        0.0000
     28 C         141.7492  140.7958  158.3372 C.3     1  UNL1        0.0991
     29 N         141.5422  141.9862  157.4483 N.3     1  UNL1       -0.2689
     30 C         142.7252  142.7160  156.8845 C.3     1  UNL1        0.0728
     31 C         142.5181  143.9063  155.9956 C.3     1  UNL1        0.0249
     32 C         141.1280  144.3669  155.6704 C.3     1  UNL1        0.0613
     33 C         139.9451  143.6370  156.2342 C.3     1  UNL1        0.0249
     34 C         140.1522  142.4466  157.1231 C.3     1  UNL1        0.0728
     35 C         140.9210  145.5572  154.7816 C.ar    1  UNL1        0.1396
     36 N         141.2682  145.6408  153.3247 N.ar    1  UNL1       -0.1335
     37 N         140.8922  147.0081  152.8362 N.ar    1  UNL1       -0.1277
     38 C         140.3125  147.7698  153.9911 C.ar    1  UNL1        0.1807
     39 N         140.3303  146.8731  155.1934 N.ar    1  UNL1       -0.3234
     40 H         140.0104  147.1071  156.0946 H       1  UNL1        0.1686
     41 C         139.8043  149.1804  153.9508 C.ar    1  UNL1        0.1169
     42 C         139.9208  149.9840  152.6895 C.ar    1  UNL1        0.0223
     43 C         139.4126  151.3947  152.6494 C.ar    1  UNL1        0.0032
     44 C         138.7877  152.0019  153.8704 C.ar    1  UNL1        0.0207
     45 C         138.6711  151.1983  155.1316 C.ar    1  UNL1        0.0989
     46 N         139.1794  149.7876  155.1719 N.ar    1  UNL1       -0.2407
@<TRIPOS>BOND
     1     7     8    1
     2     8     9   ar
     3     9    10   ar
     4    10    11   ar
     5    11    12   ar
     6    12    13   ar
     7    13    14   ar
     8    14    22    1
     9    22    23   ar
    10    23    24   ar
    11    24    25   ar
    12    25    26   ar
    13    26    27   ar
    14    14    15   ar
    15    15     1    1
    16     1     2   ar
    17     2     3   ar
    18     3     4   ar
    19     4    28    1
    20    28    29    1
    21    29    30    1
    22    30    31    1
    23    31    32    1
    24    32    35    1
    25    35    36   ar
    26    36    37   ar
    27    37    38   ar
    28    38    41    1
    29    41    42   ar
    30    42    43   ar
    31    43    44   ar
    32    44    45   ar
    33    45    46   ar
    34    38    39   ar
    35    32    33    1
    36    33    34    1
    37     4     5   ar
    38     5     6   ar
    39    15    16   ar
    40    16    17   ar
    41    17    18   ar
    42    18    19   ar
    43    19    20   ar
    44    20     8   ar
    45    20    11   ar
    46    17    12   ar
    47    27    22   ar
    48     6     1   ar
    49    34    29    1
    50    39    35   ar
    51    46    41   ar
    52     7    21    1
    53    39    40    1
@<TRIPOS>MOLECULE
*****
 46 53 0 0 0
SMALL
GASTEIGER

@<TRIPOS>ATOM
      1 C         141.2145  141.0790  162.7821 C.ar    1  UNL1        0.0176
      2 C         142.2575  141.6824  161.8889 C.ar    1  UNL1        0.0012
      3 C         142.1875  141.4719  160.4054 C.ar    1  UNL1       -0.0029
      4 C         141.0744  140.6580  159.8151 C.ar    1  UNL1       -0.0061
      5 C         140.0312  140.0546  160.7083 C.ar    1  UNL1       -0.0029
      6 C         140.1013  140.2651  162.1918 C.ar    1  UNL1        0.0012
      7 O         142.4270  140.5692  172.2330 O.3     1  UNL1       -0.4783
      8 C         141.9832  141.3300  171.0188 C.ar    1  UNL1        0.3209
      9 N         141.4082  142.7154  171.0079 N.ar    1  UNL1       -0.0915
     10 N         141.1061  143.0807  169.5847 N.ar    1  UNL1       -0.1255
     11 C         141.4944  141.9211  168.7161 C.ar    1  UNL1        0.1741
     12 C         141.4244  141.7106  167.2326 C.ar    1  UNL1        0.0541
     13 C         140.8824  142.7925  166.3463 C.ar    1  UNL1        0.0061
     14 C         140.8124  142.5820  164.8628 C.ar    1  UNL1        0.0178
     15 C         141.2845  141.2895  164.2657 C.ar    1  UNL1        0.0812
     16 N         141.8265  140.2076  165.1519 N.ar    1  UNL1       -0.2452
     17 C         141.8965  140.4181  166.6355 C.ar    1  UNL1        0.0857
     18 C         142.4385  139.3362  167.5217 C.ar    1  UNL1        0.0384
     19 C         142.5085  139.5467  169.0053 C.ar    1  UNL1        0.0874
     20 N         142.0364  140.8391  169.6025 N.ar    1  UNL1       -0.2427
     21 H         142.3555  140.9589  173.0821 H       1  UNL1        0.2953
     22 C         140.2703  143.6640  163.9765 C.ar    1  UNL1        0.0015
     23 C         138.8197  143.6646  163.5950 C.ar    1  UNL1        0.0000
     24 C         138.2777  144.7466  162.7088 C.ar    1  UNL1        0.0000
     25 C         139.1864  145.8281  162.2040 C.ar    1  UNL1        0.0000
     26 C         140.6370  145.8275  162.5855 C.ar    1  UNL1        0.0000
     27 C         141.1790  144.7454  163.4718 C.ar    1  UNL1        0.0000
     28 C         141.0043  140.4475  158.3316 C.3     1  UNL1        0.0991
     29 N         139.6959  140.5982  157.6137 N.3     1  UNL1       -0.2689
     30 C         139.3164  139.6282  156.5343 C.3     1  UNL1        0.0728
     31 C         138.0081  139.7790  155.8165 C.3     1  UNL1        0.0249
     32 C         137.0790  140.8999  156.1781 C.3     1  UNL1        0.0613
     33 C         137.4584  141.8699  157.2574 C.3     1  UNL1        0.0249
     34 C         138.7669  141.7191  157.9753 C.3     1  UNL1        0.0728
     35 C         135.7706  141.0506  155.4603 C.ar    1  UNL1        0.1396
     36 N         135.5929  141.2583  153.9854 N.ar    1  UNL1       -0.1335
     37 N         134.1227  141.3562  153.7048 N.ar    1  UNL1       -0.1277
     38 C         133.3916  141.2091  155.0064 C.ar    1  UNL1        0.1807
     39 N         134.4101  141.0202  156.0912 N.ar    1  UNL1       -0.3234
     40 H         134.2191  140.8977  157.0493 H       1  UNL1        0.1686
     41 C         131.9035  141.2445  155.1907 C.ar    1  UNL1        0.1169
     42 C         131.0610  142.1315  154.3225 C.ar    1  UNL1        0.0223
     43 C         129.5728  142.1669  154.5069 C.ar    1  UNL1        0.0032
     44 C         128.9270  141.3154  155.5594 C.ar    1  UNL1        0.0207
     45 C         129.7694  140.4284  156.4275 C.ar    1  UNL1        0.0989
     46 N         131.2576  140.3929  156.2432 N.ar    1  UNL1       -0.2407
@<TRIPOS>BOND
     1     7     8    1
     2     8     9   ar
     3     9    10   ar
     4    10    11   ar
     5    11    12   ar
     6    12    13   ar
     7    13    14   ar
     8    14    22    1
     9    22    23   ar
    10    23    24   ar
    11    24    25   ar
    12    25    26   ar
    13    26    27   ar
    14    14    15   ar
    15    15     1    1
    16     1     2   ar
    17     2     3   ar
    18     3     4   ar
    19     4    28    1
    20    28    29    1
    21    29    30    1
    22    30    31    1
    23    31    32    1
    24    32    35    1
    25    35    36   ar
    26    36    37   ar
    27    37    38   ar
    28    38    41    1
    29    41    42   ar
    30    42    43   ar
    31    43    44   ar
    32    44    45   ar
    33    45    46   ar
    34    38    39   ar
    35    32    33    1
    36    33    34    1
    37     4     5   ar
    38     5     6   ar
    39    15    16   ar
    40    16    17   ar
    41    17    18   ar
    42    18    19   ar
    43    19    20   ar
    44    20     8   ar
    45    20    11   ar
    46    17    12   ar
    47    27    22   ar
    48     6     1   ar
    49    34    29    1
    50    39    35   ar
    51    46    41   ar
    52     7    21    1
    53    39    40    1
@<TRIPOS>MOLECULE
*****
 46 53 0 0 0
SMALL
GASTEIGER

@<TRIPOS>ATOM
      1 C         141.4769  141.1107  162.7722 C.ar    1  UNL1        0.0176
      2 C         140.3387  140.3867  162.1165 C.ar    1  UNL1        0.0012
      3 C         140.3429  140.1707  160.6320 C.ar    1  UNL1       -0.0029
      4 C         141.4855  140.6787  159.8035 C.ar    1  UNL1       -0.0061
      5 C         142.6238  141.4027  160.4594 C.ar    1  UNL1       -0.0029
      6 C         142.6195  141.6187  161.9437 C.ar    1  UNL1        0.0012
      7 O         142.2908  140.6690  172.2692 O.3     1  UNL1       -0.4783
      8 C         141.8704  141.4087  171.0339 C.ar    1  UNL1        0.3209
      9 N         141.2404  142.7694  170.9924 N.ar    1  UNL1       -0.0915
     10 N         140.9868  143.1193  169.5560 N.ar    1  UNL1       -0.1255
     11 C         141.4600  141.9749  168.7097 C.ar    1  UNL1        0.1741
     12 C         141.4643  141.7588  167.2253 C.ar    1  UNL1        0.0541
     13 C         140.9182  142.8160  166.3120 C.ar    1  UNL1        0.0061
     14 C         140.9224  142.5999  164.8276 C.ar    1  UNL1        0.0178
     15 C         141.4727  141.3267  164.2567 C.ar    1  UNL1        0.0812
     16 N         142.0188  140.2696  165.1699 N.ar    1  UNL1       -0.2452
     17 C         142.0145  140.4856  166.6544 C.ar    1  UNL1        0.0857
     18 C         142.5606  139.4285  167.5676 C.ar    1  UNL1        0.0384
     19 C         142.5564  139.6445  169.0521 C.ar    1  UNL1        0.0874
     20 N         142.0061  140.9177  169.6230 N.ar    1  UNL1       -0.2427
     21 H         142.1661  141.0571  173.1129 H       1  UNL1        0.2953
     22 C         140.3764  143.6572  163.9143 C.ar    1  UNL1        0.0015
     23 C         141.2892  144.7047  163.3492 C.ar    1  UNL1        0.0000
     24 C         140.7431  145.7618  162.4360 C.ar    1  UNL1        0.0000
     25 C         139.2840  145.7716  162.0878 C.ar    1  UNL1        0.0000
     26 C         138.3712  144.7240  162.6529 C.ar    1  UNL1        0.0000
     27 C         138.9174  143.6668  163.5662 C.ar    1  UNL1        0.0000
     28 C         141.4897  140.4628  158.3192 C.3     1  UNL1        0.0991
     29 N         142.6101  141.0096  157.4850 N.3     1  UNL1       -0.2689
     30 C         143.8995  140.2518  157.3711 C.3     1  UNL1        0.0728
     31 C         145.0197  140.7986  156.5369 C.3     1  UNL1        0.0249
     32 C         144.8506  142.1035  155.8166 C.3     1  UNL1        0.0613
     33 C         143.5612  142.8614  155.9305 C.3     1  UNL1        0.0249
     34 C         142.4409  142.3144  156.7647 C.3     1  UNL1        0.0728
     35 C         145.9708  142.6504  154.9824 C.ar    1  UNL1        0.1396
     36 N         145.8554  143.7356  153.9533 N.ar    1  UNL1       -0.1335
     37 N         147.2164  143.9640  153.3657 N.ar    1  UNL1       -0.1277
     38 C         148.1732  143.0200  154.0317 C.ar    1  UNL1        0.1807
     39 N         147.4034  142.2081  155.0308 N.ar    1  UNL1       -0.3234
     40 H         147.7734  141.5080  155.6157 H       1  UNL1        0.1686
     41 C         149.6418  142.9075  153.7483 C.ar    1  UNL1        0.1169
     42 C         150.4044  141.7007  154.2089 C.ar    1  UNL1        0.0223
     43 C         151.8730  141.5883  153.9254 C.ar    1  UNL1        0.0032
     44 C         152.5792  142.6827  153.1814 C.ar    1  UNL1        0.0207
     45 C         151.8167  143.8895  152.7207 C.ar    1  UNL1        0.0989
     46 N         150.3479  144.0020  153.0042 N.ar    1  UNL1       -0.2407
@<TRIPOS>BOND
     1     7     8    1
     2     8     9   ar
     3     9    10   ar
     4    10    11   ar
     5    11    12   ar
     6    12    13   ar
     7    13    14   ar
     8    14    22    1
     9    22    23   ar
    10    23    24   ar
    11    24    25   ar
    12    25    26   ar
    13    26    27   ar
    14    14    15   ar
    15    15     1    1
    16     1     2   ar
    17     2     3   ar
    18     3     4   ar
    19     4    28    1
    20    28    29    1
    21    29    30    1
    22    30    31    1
    23    31    32    1
    24    32    35    1
    25    35    36   ar
    26    36    37   ar
    27    37    38   ar
    28    38    41    1
    29    41    42   ar
    30    42    43   ar
    31    43    44   ar
    32    44    45   ar
    33    45    46   ar
    34    38    39   ar
    35    32    33    1
    36    33    34    1
    37     4     5   ar
    38     5     6   ar
    39    15    16   ar
    40    16    17   ar
    41    17    18   ar
    42    18    19   ar
    43    19    20   ar
    44    20     8   ar
    45    20    11   ar
    46    17    12   ar
    47    27    22   ar
    48     6     1   ar
    49    34    29    1
    50    39    35   ar
    51    46    41   ar
    52     7    21    1
    53    39    40    1
@<TRIPOS>MOLECULE
*****
 46 53 0 0 0
SMALL
GASTEIGER

@<TRIPOS>ATOM
      1 C         140.8528  140.1648  162.0861 C.ar    1  UNL1        0.0176
      2 C         140.1895  141.0816  161.1017 C.ar    1  UNL1        0.0012
      3 C         140.5106  140.9721  159.6405 C.ar    1  UNL1       -0.0029
      4 C         141.4951  139.9457  159.1639 C.ar    1  UNL1       -0.0061
      5 C         142.1585  139.0288  160.1485 C.ar    1  UNL1       -0.0029
      6 C         141.8373  139.1384  161.6096 C.ar    1  UNL1        0.0012
      7 O         137.4831  139.4169  170.9820 O.3     1  UNL1       -0.4783
      8 C         138.4135  140.0561  169.9941 C.ar    1  UNL1        0.3209
      9 N         139.4081  141.1386  170.2925 N.ar    1  UNL1       -0.0915
     10 N         140.1219  141.4766  169.0172 N.ar    1  UNL1       -0.1255
     11 C         139.5685  140.6029  167.9307 C.ar    1  UNL1        0.1741
     12 C         139.8895  140.4934  166.4696 C.ar    1  UNL1        0.0541
     13 C         140.9454  141.3713  165.8658 C.ar    1  UNL1        0.0061
     14 C         141.2664  141.2617  164.4047 C.ar    1  UNL1        0.0178
     15 C         140.5317  140.2743  163.5473 C.ar    1  UNL1        0.0812
     16 N         139.4759  139.3965  164.1510 N.ar    1  UNL1       -0.2452
     17 C         139.1548  139.5060  165.6122 C.ar    1  UNL1        0.0857
     18 C         138.0990  138.6281  166.2159 C.ar    1  UNL1        0.0384
     19 C         137.7778  138.7376  167.6771 C.ar    1  UNL1        0.0874
     20 N         138.5126  139.7251  168.5345 N.ar    1  UNL1       -0.2427
     21 H         137.4919  139.6898  171.8783 H       1  UNL1        0.2953
     22 C         142.3223  142.1397  163.8010 C.ar    1  UNL1        0.0015
     23 C         141.9624  143.5039  163.2917 C.ar    1  UNL1        0.0000
     24 C         143.0183  144.3817  162.6880 C.ar    1  UNL1        0.0000
     25 C         144.4342  143.8954  162.5936 C.ar    1  UNL1        0.0000
     26 C         144.7941  142.5312  163.1030 C.ar    1  UNL1        0.0000
     27 C         143.7382  141.6533  163.7067 C.ar    1  UNL1        0.0000
     28 C         141.8163  139.8362  157.7028 C.3     1  UNL1        0.0991
     29 N         141.7384  138.5051  157.0156 N.3     1  UNL1       -0.2689
     30 C         142.9810  137.6879  156.8203 C.3     1  UNL1        0.0728
     31 C         142.9030  136.3570  156.1331 C.3     1  UNL1        0.0249
     32 C         141.5824  135.8430  155.6411 C.3     1  UNL1        0.0613
     33 C         140.3398  136.6602  155.8364 C.3     1  UNL1        0.0249
     34 C         140.4178  137.9912  156.5237 C.3     1  UNL1        0.0728
     35 C         141.5045  134.5121  154.9540 C.ar    1  UNL1        0.1396
     36 N         141.5982  134.2762  153.4756 N.ar    1  UNL1       -0.1335
     37 N         141.4708  132.8016  153.2324 N.ar    1  UNL1       -0.1277
     38 C         141.2983  132.1260  154.5604 C.ar    1  UNL1        0.1807
     39 N         141.3191  133.1831  155.6244 N.ar    1  UNL1       -0.3234
     40 H         141.2272  133.0313  156.5928 H       1  UNL1        0.1686
     41 C         141.1338  130.6521  154.7851 C.ar    1  UNL1        0.1169
     42 C         139.8546  129.9721  154.3959 C.ar    1  UNL1        0.0223
     43 C         139.6902  128.4982  154.6206 C.ar    1  UNL1        0.0032
     44 C         140.8050  127.7042  155.2346 C.ar    1  UNL1        0.0207
     45 C         142.0841  128.3841  155.6238 C.ar    1  UNL1        0.0989
     46 N         142.2485  129.8581  155.3991 N.ar    1  UNL1       -0.2407
@<TRIPOS>BOND
     1     7     8    1
     2     8     9   ar
     3     9    10   ar
     4    10    11   ar
     5    11    12   ar
     6    12    13   ar
     7    13    14   ar
     8    14    22    1
     9    22    23   ar
    10    23    24   ar
    11    24    25   ar
    12    25    26   ar
    13    26    27   ar
    14    14    15   ar
    15    15     1    1
    16     1     2   ar
    17     2     3   ar
    18     3     4   ar
    19     4    28    1
    20    28    29    1
    21    29    30    1
    22    30    31    1
    23    31    32    1
    24    32    35    1
    25    35    36   ar
    26    36    37   ar
    27    37    38   ar
    28    38    41    1
    29    41    42   ar
    30    42    43   ar
    31    43    44   ar
    32    44    45   ar
    33    45    46   ar
    34    38    39   ar
    35    32    33    1
    36    33    34    1
    37     4     5   ar
    38     5     6   ar
    39    15    16   ar
    40    16    17   ar
    41    17    18   ar
    42    18    19   ar
    43    19    20   ar
    44    20     8   ar
    45    20    11   ar
    46    17    12   ar
    47    27    22   ar
    48     6     1   ar
    49    34    29    1
    50    39    35   ar
    51    46    41   ar
    52     7    21    1
    53    39    40    1
@<TRIPOS>MOLECULE
*****
 46 53 0 0 0
SMALL
GASTEIGER

@<TRIPOS>ATOM
      1 C         140.7295  140.9592  162.0760 C.ar    1  UNL1        0.0176
      2 C         140.2404  142.1210  161.2633 C.ar    1  UNL1        0.0012
      3 C         140.5097  142.1711  159.7885 C.ar    1  UNL1       -0.0029
      4 C         141.2682  141.0592  159.1265 C.ar    1  UNL1       -0.0061
      5 C         141.7574  139.8973  159.9392 C.ar    1  UNL1       -0.0029
      6 C         141.4881  139.8472  161.4140 C.ar    1  UNL1        0.0012
      7 O         137.6835  139.2351  170.9529 O.3     1  UNL1       -0.4783
      8 C         138.5747  139.9845  170.0073 C.ar    1  UNL1        0.3209
      9 N         139.5737  141.0378  170.3848 N.ar    1  UNL1       -0.0915
     10 N         140.2398  141.5164  169.1290 N.ar    1  UNL1       -0.1255
     11 C         139.6524  140.7590  167.9752 C.ar    1  UNL1        0.1741
     12 C         139.9217  140.8090  166.5004 C.ar    1  UNL1        0.0541
     13 C         140.9508  141.7558  165.9576 C.ar    1  UNL1        0.0061
     14 C         141.2200  141.8058  164.4828 C.ar    1  UNL1        0.0178
     15 C         140.4602  140.9091  163.5508 C.ar    1  UNL1        0.0812
     16 N         139.4312  139.9624  164.0936 N.ar    1  UNL1       -0.2452
     17 C         139.1619  139.9123  165.5684 C.ar    1  UNL1        0.0857
     18 C         138.1329  138.9656  166.1112 C.ar    1  UNL1        0.0384
     19 C         137.8635  138.9155  167.5860 C.ar    1  UNL1        0.0874
     20 N         138.6234  139.8122  168.5180 N.ar    1  UNL1       -0.2427
     21 H         137.7229  139.4109  171.8724 H       1  UNL1        0.2953
     22 C         142.2491  142.7526  163.9400 C.ar    1  UNL1        0.0015
     23 C         141.9651  144.2248  163.8966 C.ar    1  UNL1        0.0000
     24 C         142.9941  145.1715  163.3538 C.ar    1  UNL1        0.0000
     25 C         144.3074  144.6461  162.8545 C.ar    1  UNL1        0.0000
     26 C         144.5915  143.1739  162.8980 C.ar    1  UNL1        0.0000
     27 C         143.5624  142.2271  163.4407 C.ar    1  UNL1        0.0000
     28 C         141.5376  141.1092  157.6517 C.3     1  UNL1        0.0991
     29 N         141.3520  142.3932  156.8986 N.3     1  UNL1       -0.2689
     30 C         140.0019  142.7551  156.3543 C.3     1  UNL1        0.0728
     31 C         139.8164  144.0390  155.6013 C.3     1  UNL1        0.0249
     32 C         140.9810  144.9610  155.3924 C.3     1  UNL1        0.0613
     33 C         142.3311  144.5991  155.9367 C.3     1  UNL1        0.0249
     34 C         142.5166  143.3151  156.6897 C.3     1  UNL1        0.0728
     35 C         140.7955  146.2449  154.6394 C.ar    1  UNL1        0.1396
     36 N         141.2703  146.5254  153.2444 N.ar    1  UNL1       -0.1335
     37 N         140.8709  147.9276  152.8919 N.ar    1  UNL1       -0.1277
     38 C         140.1492  148.5138  154.0690 C.ar    1  UNL1        0.1807
     39 N         140.1026  147.4738  155.1490 N.ar    1  UNL1       -0.3234
     40 H         139.6898  147.5793  156.0365 H       1  UNL1        0.1686
     41 C         139.5750  149.8969  154.1517 C.ar    1  UNL1        0.1169
     42 C         138.9742  150.3841  155.4369 C.ar    1  UNL1        0.0223
     43 C         138.4000  151.7674  155.5195 C.ar    1  UNL1        0.0032
     44 C         138.4264  152.6635  154.3169 C.ar    1  UNL1        0.0207
     45 C         139.0271  152.1764  153.0317 C.ar    1  UNL1        0.0989
     46 N         139.6014  150.7931  152.9490 N.ar    1  UNL1       -0.2407
@<TRIPOS>BOND
     1     7     8    1
     2     8     9   ar
     3     9    10   ar
     4    10    11   ar
     5    11    12   ar
     6    12    13   ar
     7    13    14   ar
     8    14    22    1
     9    22    23   ar
    10    23    24   ar
    11    24    25   ar
    12    25    26   ar
    13    26    27   ar
    14    14    15   ar
    15    15     1    1
    16     1     2   ar
    17     2     3   ar
    18     3     4   ar
    19     4    28    1
    20    28    29    1
    21    29    30    1
    22    30    31    1
    23    31    32    1
    24    32    35    1
    25    35    36   ar
    26    36    37   ar
    27    37    38   ar
    28    38    41    1
    29    41    42   ar
    30    42    43   ar
    31    43    44   ar
    32    44    45   ar
    33    45    46   ar
    34    38    39   ar
    35    32    33    1
    36    33    34    1
    37     4     5   ar
    38     5     6   ar
    39    15    16   ar
    40    16    17   ar
    41    17    18   ar
    42    18    19   ar
    43    19    20   ar
    44    20     8   ar
    45    20    11   ar
    46    17    12   ar
    47    27    22   ar
    48     6     1   ar
    49    34    29    1
    50    39    35   ar
    51    46    41   ar
    52     7    21    1
    53    39    40    1
@<TRIPOS>MOLECULE
*****
 46 53 0 0 0
SMALL
GASTEIGER

@<TRIPOS>ATOM
      1 C         142.1812  140.2623  162.8882 C.ar    1  UNL1        0.0176
      2 C         142.2981  141.5676  162.1586 C.ar    1  UNL1        0.0012
      3 C         142.8326  141.5984  160.7574 C.ar    1  UNL1       -0.0029
      4 C         143.2503  140.3238  160.0859 C.ar    1  UNL1       -0.0061
      5 C         143.1334  139.0185  160.8155 C.ar    1  UNL1       -0.0029
      6 C         142.5988  138.9877  162.2167 C.ar    1  UNL1        0.0012
      7 O         140.6800  140.4412  172.3097 O.3     1  UNL1       -0.4783
      8 C         140.1573  140.2772  170.9133 C.ar    1  UNL1        0.3209
      9 N         138.7341  139.9961  170.5319 N.ar    1  UNL1       -0.0915
     10 N         138.6633  139.9107  169.0360 N.ar    1  UNL1       -0.1255
     11 C         140.0427  140.1389  168.4929 C.ar    1  UNL1        0.1741
     12 C         140.5773  140.1698  167.0917 C.ar    1  UNL1        0.0541
     13 C         139.6540  139.9432  165.9315 C.ar    1  UNL1        0.0061
     14 C         140.1886  139.9741  164.5303 C.ar    1  UNL1        0.0178
     15 C         141.6466  140.2315  164.2894 C.ar    1  UNL1        0.0812
     16 N         142.5699  140.4580  165.4496 N.ar    1  UNL1       -0.2452
     17 C         142.0353  140.4271  166.8508 C.ar    1  UNL1        0.0857
     18 C         142.9586  140.6537  168.0109 C.ar    1  UNL1        0.0384
     19 C         142.4240  140.6228  169.4122 C.ar    1  UNL1        0.0874
     20 N         140.9661  140.3655  169.6531 N.ar    1  UNL1       -0.2427
     21 H         140.0970  140.3690  173.0397 H       1  UNL1        0.2953
     22 C         139.2652  139.7475  163.3702 C.ar    1  UNL1        0.0015
     23 C         138.6923  140.9183  162.6277 C.ar    1  UNL1        0.0000
     24 C         137.7689  140.6917  161.4676 C.ar    1  UNL1        0.0000
     25 C         137.4183  139.2943  161.0498 C.ar    1  UNL1        0.0000
     26 C         137.9912  138.1236  161.7923 C.ar    1  UNL1        0.0000
     27 C         138.9146  138.3502  162.9524 C.ar    1  UNL1        0.0000
     28 C         143.7848  140.3546  158.6847 C.3     1  UNL1        0.0991
     29 N         143.2339  141.3362  157.6932 N.3     1  UNL1       -0.2689
     30 C         141.7612  141.3705  157.4107 C.3     1  UNL1        0.0728
     31 C         141.2103  142.3520  156.4193 C.3     1  UNL1        0.0249
     32 C         142.1322  143.2994  155.7103 C.3     1  UNL1        0.0613
     33 C         143.6049  143.2652  155.9928 C.3     1  UNL1        0.0249
     34 C         144.1558  142.2836  156.9842 C.3     1  UNL1        0.0728
     35 C         141.5813  144.2810  154.7188 C.ar    1  UNL1        0.1396
     36 N         141.1362  143.9669  153.3213 N.ar    1  UNL1       -0.1335
     37 N         140.6586  145.2408  152.6895 N.ar    1  UNL1       -0.1277
     38 C         140.8086  146.3422  153.6966 C.ar    1  UNL1        0.1807
     39 N         141.3789  145.7491  154.9508 N.ar    1  UNL1       -0.3234
     40 H         141.5842  146.2375  155.7806 H       1  UNL1        0.1686
     41 C         140.4511  147.7837  153.4866 C.ar    1  UNL1        0.1169
     42 C         140.8071  148.4648  152.1983 C.ar    1  UNL1        0.0223
     43 C         140.4495  149.9063  151.9883 C.ar    1  UNL1        0.0032
     44 C         139.7361  150.6669  153.0665 C.ar    1  UNL1        0.0207
     45 C         139.3801  149.9859  154.3547 C.ar    1  UNL1        0.0989
     46 N         139.7377  148.5443  154.5648 N.ar    1  UNL1       -0.2407
@<TRIPOS>BOND
     1     7     8    1
     2     8     9   ar
     3     9    10   ar
     4    10    11   ar
     5    11    12   ar
     6    12    13   ar
     7    13    14   ar
     8    14    22    1
     9    22    23   ar
    10    23    24   ar
    11    24    25   ar
    12    25    26   ar
    13    26    27   ar
    14    14    15   ar
    15    15     1    1
    16     1     2   ar
    17     2     3   ar
    18     3     4   ar
    19     4    28    1
    20    28    29    1
    21    29    30    1
    22    30    31    1
    23    31    32    1
    24    32    35    1
    25    35    36   ar
    26    36    37   ar
    27    37    38   ar
    28    38    41    1
    29    41    42   ar
    30    42    43   ar
    31    43    44   ar
    32    44    45   ar
    33    45    46   ar
    34    38    39   ar
    35    32    33    1
    36    33    34    1
    37     4     5   ar
    38     5     6   ar
    39    15    16   ar
    40    16    17   ar
    41    17    18   ar
    42    18    19   ar
    43    19    20   ar
    44    20     8   ar
    45    20    11   ar
    46    17    12   ar
    47    27    22   ar
    48     6     1   ar
    49    34    29    1
    50    39    35   ar
    51    46    41   ar
    52     7    21    1
    53    39    40    1
