@<TRIPOS>MOLECULE
*****
 34 38 0 0 0
SMALL
GASTEIGER

@<TRIPOS>ATOM
      1 N         141.3384  138.4851  160.9341 N.3     1  UNL1       -0.2673
      2 C         142.6264  139.1947  161.2295 C.3     1  UNL1        0.1035
      3 C         143.1851  139.1862  162.6215 C.3     1  UNL1        0.1470
      4 C         143.7439  139.1776  164.0136 C.3     1  UNL1        0.1038
      5 N         143.0146  138.4595  165.1101 N.3     1  UNL1       -0.2633
      6 C         141.7265  137.7499  164.8146 C.3     1  UNL1        0.1038
      7 C         141.1678  137.7584  163.4226 C.3     1  UNL1        0.1470
      8 C         140.6090  137.7669  162.0306 C.3     1  UNL1        0.1035
      9 O         142.4558  138.4680  163.7180 O.3     1  UNL1       -0.3530
     10 C         140.7795  138.4936  159.5420 C.3     1  UNL1        0.0913
     11 C         140.1064  139.7246  159.0116 C.3     1  UNL1        0.1087
     12 N         138.7512  140.1170  159.5211 N.3     1  UNL1       -0.1780
     13 H         138.2608  140.5588  158.7435 H       1  UNL1        0.1488
     14 S         138.6304  141.0456  160.6928 S.O2    1  UNL1        0.0603
     15 O         139.1929  142.1630  159.8651 O.2     1  UNL1       -0.1530
     16 O         138.0680  139.9283  161.5205 O.2     1  UNL1       -0.1530
     17 C         138.2683  143.8318  164.2079 C.ar    1  UNL1        0.0685
     18 C         137.6197  142.4800  164.2525 C.ar    1  UNL1        0.0116
     19 C         137.7404  141.5512  163.0807 C.ar    1  UNL1        0.0206
     20 C         138.5097  141.9743  161.8645 C.ar    1  UNL1        0.1220
     21 C         139.1583  143.3262  161.8200 C.ar    1  UNL1        0.0206
     22 C         139.0376  144.2549  162.9917 C.ar    1  UNL1        0.0116
     23 N         138.0269  145.6893  166.5514 N.1     1  UNL1       -0.1908
     24 C         138.1476  144.7605  165.3796 C.1     1  UNL1        0.1004
     25 C         143.5734  138.4510  166.5021 C.3     1  UNL1        0.1223
     26 C         142.8789  139.2100  167.5937 C.ar    1  UNL1        0.1167
     27 N         142.8558  138.8406  169.0473 N.ar    1  UNL1       -0.0800
     28 O         142.0482  139.8740  169.7754 O.2     1  UNL1       -0.3537
     29 C         141.5723  140.8820  168.7717 C.ar    1  UNL1        0.1765
     30 C         140.7377  142.1206  168.9113 C.ar    1  UNL1        0.0402
     31 C         140.4165  142.9487  167.7026 C.ar    1  UNL1        0.0032
     32 C         140.9299  142.5383  166.3542 C.ar    1  UNL1        0.0002
     33 C         141.7644  141.2998  166.2146 C.ar    1  UNL1        0.0045
     34 C         142.0856  140.4716  167.4234 C.ar    1  UNL1        0.0552
@<TRIPOS>BOND
     1    23    24    3
     2    24    17    1
     3    17    18   ar
     4    18    19   ar
     5    19    20   ar
     6    20    14    1
     7    14    15    2
     8    14    16    2
     9    14    12    1
    10    12    11    1
    11    11    10    1
    12    10     1    1
    13     1     2    1
    14     2     3    1
    15     3     4    1
    16     4     5    1
    17     5    25    1
    18    25    26    1
    19    26    27   ar
    20    27    28   ar
    21    28    29   ar
    22    29    30   ar
    23    30    31   ar
    24    31    32   ar
    25    32    33   ar
    26    33    34   ar
    27     5     6    1
    28     6     7    1
    29     7     8    1
    30     7     9    1
    31    20    21   ar
    32    21    22   ar
    33    22    17   ar
    34     8     1    1
    35     9     3    1
    36    34    26   ar
    37    34    29   ar
    38    12    13    1
@<TRIPOS>MOLECULE
*****
 34 38 0 0 0
SMALL
GASTEIGER

@<TRIPOS>ATOM
      1 N         138.3844  141.7623  160.2237 N.3     1  UNL1       -0.2673
      2 C         138.8183  140.3270  160.1849 C.3     1  UNL1        0.1035
      3 C         138.8586  139.5212  161.4494 C.3     1  UNL1        0.1470
      4 C         138.8988  138.7153  162.7140 C.3     1  UNL1        0.1038
      5 N         138.5050  139.3448  164.0173 N.3     1  UNL1       -0.2633
      6 C         138.0710  140.7802  164.0561 C.3     1  UNL1        0.1038
      7 C         138.0308  141.5860  162.7916 C.3     1  UNL1        0.1470
      8 C         137.9906  142.3918  161.5271 C.3     1  UNL1        0.1035
      9 O         138.4648  140.1507  162.7528 O.3     1  UNL1       -0.3530
     10 C         138.3441  142.5681  158.9592 C.3     1  UNL1        0.0913
     11 C         139.6117  143.1310  158.3879 C.3     1  UNL1        0.1087
     12 N         140.1960  144.3904  158.9559 N.3     1  UNL1       -0.1780
     13 H         140.7665  144.8080  158.2206 H       1  UNL1        0.1488
     14 S         141.0512  144.3318  160.1868 S.O2    1  UNL1        0.0603
     15 O         141.8320  143.1984  159.5903 O.2     1  UNL1       -0.1530
     16 O         140.2704  145.4651  160.7832 O.2     1  UNL1       -0.1530
     17 C         143.6168  144.1559  163.8796 C.ar    1  UNL1        0.0685
     18 C         144.0986  143.5363  162.6014 C.ar    1  UNL1        0.0116
     19 C         143.2434  143.5949  161.3704 C.ar    1  UNL1        0.0206
     20 C         141.9064  144.2731  161.4177 C.ar    1  UNL1        0.1220
     21 C         141.4245  144.8928  162.6959 C.ar    1  UNL1        0.0206
     22 C         142.2797  144.8342  163.9269 C.ar    1  UNL1        0.0116
     23 N         145.3272  144.0387  166.3415 N.1     1  UNL1       -0.1908
     24 C         144.4719  144.0973  165.1105 C.1     1  UNL1        0.1004
     25 C         138.5453  138.5390  165.2818 C.3     1  UNL1        0.1223
     26 C         139.0300  139.1659  166.5555 C.ar    1  UNL1        0.1167
     27 N         138.3238  139.1334  167.8785 N.ar    1  UNL1       -0.0800
     28 O         139.1633  139.8826  168.8705 O.2     1  UNL1       -0.3537
     29 C         140.3882  140.3781  168.1605 C.ar    1  UNL1        0.1765
     30 C         141.5681  141.1754  168.6320 C.ar    1  UNL1        0.0402
     31 C         142.6654  141.5297  167.6728 C.ar    1  UNL1        0.0032
     32 C         142.5831  141.0867  166.2420 C.ar    1  UNL1        0.0002
     33 C         141.4032  140.2894  165.7706 C.ar    1  UNL1        0.0045
     34 C         140.3058  139.9351  166.7298 C.ar    1  UNL1        0.0552
@<TRIPOS>BOND
     1    23    24    3
     2    24    17    1
     3    17    18   ar
     4    18    19   ar
     5    19    20   ar
     6    20    14    1
     7    14    15    2
     8    14    16    2
     9    14    12    1
    10    12    11    1
    11    11    10    1
    12    10     1    1
    13     1     2    1
    14     2     3    1
    15     3     4    1
    16     4     5    1
    17     5    25    1
    18    25    26    1
    19    26    27   ar
    20    27    28   ar
    21    28    29   ar
    22    29    30   ar
    23    30    31   ar
    24    31    32   ar
    25    32    33   ar
    26    33    34   ar
    27     5     6    1
    28     6     7    1
    29     7     8    1
    30     7     9    1
    31    20    21   ar
    32    21    22   ar
    33    22    17   ar
    34     8     1    1
    35     9     3    1
    36    34    26   ar
    37    34    29   ar
    38    12    13    1
@<TRIPOS>MOLECULE
*****
 34 38 0 0 0
SMALL
GASTEIGER

@<TRIPOS>ATOM
      1 N         139.7037  139.8442  159.4576 N.3     1  UNL1       -0.2673
      2 C         141.0232  139.4120  160.0252 C.3     1  UNL1        0.1035
      3 C         141.8848  138.4454  159.2682 C.3     1  UNL1        0.1470
      4 C         142.7465  137.4787  158.5111 C.3     1  UNL1        0.1038
      5 N         142.2886  136.9442  157.1865 N.3     1  UNL1       -0.2633
      6 C         140.9691  137.3764  156.6189 C.3     1  UNL1        0.1038
      7 C         140.1075  138.3430  157.3759 C.3     1  UNL1        0.1470
      8 C         139.2459  139.3097  158.1329 C.3     1  UNL1        0.1035
      9 O         141.4269  137.9109  157.9435 O.3     1  UNL1       -0.3530
     10 C         138.8420  140.8109  160.2146 C.3     1  UNL1        0.0913
     11 C         137.7088  140.3049  161.0571 C.3     1  UNL1        0.1087
     12 N         137.2278  141.1090  162.2284 N.3     1  UNL1       -0.1780
     13 H         137.3667  142.0906  161.9887 H       1  UNL1        0.1488
     14 S         137.8404  140.9029  163.5820 S.O2    1  UNL1        0.0603
     15 O         138.0441  139.4502  163.2686 O.2     1  UNL1       -0.1530
     16 O         137.6367  142.3555  163.8954 O.2     1  UNL1       -0.1530
     17 C         139.6785  140.2846  167.6426 C.ar    1  UNL1        0.0685
     18 C         138.7352  139.2615  167.0828 C.ar    1  UNL1        0.0116
     19 C         138.1225  139.4676  165.7292 C.ar    1  UNL1        0.0206
     20 C         138.4531  140.6968  164.9355 C.ar    1  UNL1        0.1220
     21 C         139.3965  141.7198  165.4954 C.ar    1  UNL1        0.0206
     22 C         140.0092  141.5137  166.8490 C.ar    1  UNL1        0.0116
     23 N         140.9039  139.8724  170.3498 N.1     1  UNL1       -0.1908
     24 C         140.2912  140.0784  168.9962 C.1     1  UNL1        0.1004
     25 C         143.1502  135.9775  156.4294 C.3     1  UNL1        0.1223
     26 C         142.7043  134.5565  156.2503 C.ar    1  UNL1        0.1167
     27 N         141.4906  134.1019  155.4952 N.ar    1  UNL1       -0.0800
     28 O         141.4299  132.6051  155.5730 O.2     1  UNL1       -0.3537
     29 C         142.6063  132.1347  156.3762 C.ar    1  UNL1        0.1765
     30 C         143.0620  130.7640  156.7806 C.ar    1  UNL1        0.0402
     31 C         144.3052  130.5993  157.6034 C.ar    1  UNL1        0.0032
     32 C         145.0928  131.8054  158.0221 C.ar    1  UNL1        0.0002
     33 C         144.6371  133.1761  157.6177 C.ar    1  UNL1        0.0045
     34 C         143.3938  133.3407  156.7948 C.ar    1  UNL1        0.0552
@<TRIPOS>BOND
     1    23    24    3
     2    24    17    1
     3    17    18   ar
     4    18    19   ar
     5    19    20   ar
     6    20    14    1
     7    14    15    2
     8    14    16    2
     9    14    12    1
    10    12    11    1
    11    11    10    1
    12    10     1    1
    13     1     2    1
    14     2     3    1
    15     3     4    1
    16     4     5    1
    17     5    25    1
    18    25    26    1
    19    26    27   ar
    20    27    28   ar
    21    28    29   ar
    22    29    30   ar
    23    30    31   ar
    24    31    32   ar
    25    32    33   ar
    26    33    34   ar
    27     5     6    1
    28     6     7    1
    29     7     8    1
    30     7     9    1
    31    20    21   ar
    32    21    22   ar
    33    22    17   ar
    34     8     1    1
    35     9     3    1
    36    34    26   ar
    37    34    29   ar
    38    12    13    1
@<TRIPOS>MOLECULE
*****
 34 38 0 0 0
SMALL
GASTEIGER

@<TRIPOS>ATOM
      1 N         144.2027  141.6401  159.8403 N.3     1  UNL1       -0.2673
      2 C         143.6708  140.2426  159.9589 C.3     1  UNL1        0.1035
      3 C         143.5459  139.5996  161.3083 C.3     1  UNL1        0.1470
      4 C         143.4211  138.9566  162.6577 C.3     1  UNL1        0.1038
      5 N         143.8283  139.7110  163.8886 N.3     1  UNL1       -0.2633
      6 C         144.3603  141.1085  163.7700 C.3     1  UNL1        0.1038
      7 C         144.4851  141.7515  162.4206 C.3     1  UNL1        0.1470
      8 C         144.6099  142.3945  161.0712 C.3     1  UNL1        0.1035
      9 O         143.9531  140.3541  162.5391 O.3     1  UNL1       -0.3530
     10 C         144.3276  142.2832  158.4909 C.3     1  UNL1        0.0913
     11 C         143.4031  143.3990  158.1034 C.3     1  UNL1        0.1087
     12 N         141.9244  143.2537  158.3096 N.3     1  UNL1       -0.1780
     13 H         141.4705  143.8434  157.6120 H       1  UNL1        0.1488
     14 S         141.3141  143.6025  159.6347 S.O2    1  UNL1        0.0603
     15 O         140.6037  142.2815  159.6551 O.2     1  UNL1       -0.1530
     16 O         142.0244  144.9234  159.6142 O.2     1  UNL1       -0.1530
     17 C         139.4831  144.6487  163.6099 C.ar    1  UNL1        0.0685
     18 C         138.6858  143.8846  162.5948 C.ar    1  UNL1        0.0116
     19 C         139.2961  143.5359  161.2697 C.ar    1  UNL1        0.0206
     20 C         140.7037  143.9512  160.9597 C.ar    1  UNL1        0.1220
     21 C         141.5010  144.7153  161.9749 C.ar    1  UNL1        0.0206
     22 C         140.8907  145.0640  163.3000 C.ar    1  UNL1        0.0116
     23 N         138.2624  145.3462  166.2601 N.1     1  UNL1       -0.1908
     24 C         138.8728  144.9974  164.9350 C.1     1  UNL1        0.1004
     25 C         143.7034  139.0680  165.2380 C.3     1  UNL1        0.1223
     26 C         142.6000  139.4810  166.1664 C.ar    1  UNL1        0.1167
     27 N         142.7519  140.3299  167.3937 N.ar    1  UNL1       -0.0800
     28 O         141.3968  140.4911  168.0164 O.2     1  UNL1       -0.3537
     29 C         140.4074  139.7418  167.1739 C.ar    1  UNL1        0.1765
     30 C         138.9254  139.5474  167.3001 C.ar    1  UNL1        0.0402
     31 C         138.1872  138.7287  166.2830 C.ar    1  UNL1        0.0032
     32 C         138.9308  138.1043  165.1396 C.ar    1  UNL1        0.0002
     33 C         140.4128  138.2988  165.0134 C.ar    1  UNL1        0.0045
     34 C         141.1511  139.1175  166.0305 C.ar    1  UNL1        0.0552
@<TRIPOS>BOND
     1    23    24    3
     2    24    17    1
     3    17    18   ar
     4    18    19   ar
     5    19    20   ar
     6    20    14    1
     7    14    15    2
     8    14    16    2
     9    14    12    1
    10    12    11    1
    11    11    10    1
    12    10     1    1
    13     1     2    1
    14     2     3    1
    15     3     4    1
    16     4     5    1
    17     5    25    1
    18    25    26    1
    19    26    27   ar
    20    27    28   ar
    21    28    29   ar
    22    29    30   ar
    23    30    31   ar
    24    31    32   ar
    25    32    33   ar
    26    33    34   ar
    27     5     6    1
    28     6     7    1
    29     7     8    1
    30     7     9    1
    31    20    21   ar
    32    21    22   ar
    33    22    17   ar
    34     8     1    1
    35     9     3    1
    36    34    26   ar
    37    34    29   ar
    38    12    13    1
@<TRIPOS>MOLECULE
*****
 34 38 0 0 0
SMALL
GASTEIGER

@<TRIPOS>ATOM
      1 N         140.2708  139.0711  158.7747 N.3     1  UNL1       -0.2673
      2 C         140.3005  140.5659  158.6541 C.3     1  UNL1        0.1035
      3 C         139.5959  141.4145  159.6707 C.3     1  UNL1        0.1470
      4 C         138.8913  142.2631  160.6872 C.3     1  UNL1        0.1038
      5 N         138.1570  141.6168  161.8244 N.3     1  UNL1       -0.2633
      6 C         138.1273  140.1219  161.9450 C.3     1  UNL1        0.1038
      7 C         138.8319  139.2734  160.9284 C.3     1  UNL1        0.1470
      8 C         139.5365  138.4248  159.9119 C.3     1  UNL1        0.1035
      9 O         138.8616  140.7682  160.8078 O.3     1  UNL1       -0.3530
     10 C         140.9754  138.2225  157.7581 C.3     1  UNL1        0.0913
     11 C         142.3597  137.7152  158.0344 C.3     1  UNL1        0.1087
     12 N         143.3385  138.5739  158.7792 N.3     1  UNL1       -0.1780
     13 H         144.2706  138.2547  158.5154 H       1  UNL1        0.1488
     14 S         143.3053  138.6218  160.2780 S.O2    1  UNL1        0.0603
     15 O         143.2163  137.1252  160.3239 O.2     1  UNL1       -0.1530
     16 O         143.3944  140.1184  160.2322 O.2     1  UNL1       -0.1530
     17 C         143.2059  138.7655  164.7746 C.ar    1  UNL1        0.0685
     18 C         142.0749  138.1328  164.0193 C.ar    1  UNL1        0.0116
     19 C         142.1080  138.0849  162.5204 C.ar    1  UNL1        0.0206
     20 C         143.2722  138.6697  161.7769 C.ar    1  UNL1        0.1220
     21 C         144.4032  139.3023  162.5323 C.ar    1  UNL1        0.0206
     22 C         144.3700  139.3502  164.0311 C.ar    1  UNL1        0.0116
     23 N         143.1396  138.8612  167.7724 N.1     1  UNL1       -0.1908
     24 C         143.1728  138.8133  166.2735 C.1     1  UNL1        0.1004
     25 C         137.4524  142.4654  162.8410 C.3     1  UNL1        0.1223
     26 C         138.2262  143.0853  163.9666 C.ar    1  UNL1        0.1167
     27 N         138.4233  144.5544  164.1968 N.ar    1  UNL1       -0.0800
     28 O         139.2578  144.7221  165.4320 O.2     1  UNL1       -0.3537
     29 C         139.5763  143.3567  165.9651 C.ar    1  UNL1        0.1765
     30 C         140.3645  142.9037  167.1583 C.ar    1  UNL1        0.0402
     31 C         140.5151  141.4394  167.4457 C.ar    1  UNL1        0.0032
     32 C         139.8776  140.4277  166.5400 C.ar    1  UNL1        0.0002
     33 C         139.0894  140.8806  165.3468 C.ar    1  UNL1        0.0045
     34 C         138.9388  142.3451  165.0594 C.ar    1  UNL1        0.0552
@<TRIPOS>BOND
     1    23    24    3
     2    24    17    1
     3    17    18   ar
     4    18    19   ar
     5    19    20   ar
     6    20    14    1
     7    14    15    2
     8    14    16    2
     9    14    12    1
    10    12    11    1
    11    11    10    1
    12    10     1    1
    13     1     2    1
    14     2     3    1
    15     3     4    1
    16     4     5    1
    17     5    25    1
    18    25    26    1
    19    26    27   ar
    20    27    28   ar
    21    28    29   ar
    22    29    30   ar
    23    30    31   ar
    24    31    32   ar
    25    32    33   ar
    26    33    34   ar
    27     5     6    1
    28     6     7    1
    29     7     8    1
    30     7     9    1
    31    20    21   ar
    32    21    22   ar
    33    22    17   ar
    34     8     1    1
    35     9     3    1
    36    34    26   ar
    37    34    29   ar
    38    12    13    1
@<TRIPOS>MOLECULE
*****
 34 38 0 0 0
SMALL
GASTEIGER

@<TRIPOS>ATOM
      1 N         139.8479  143.0308  158.1777 N.3     1  UNL1       -0.2673
      2 C         138.5178  142.6290  158.7427 C.3     1  UNL1        0.1035
      3 C         138.3900  141.3579  159.5288 C.3     1  UNL1        0.1470
      4 C         138.2621  140.0868  160.3149 C.3     1  UNL1        0.1038
      5 N         139.4644  139.2175  160.5359 N.3     1  UNL1       -0.2633
      6 C         140.7946  139.6194  159.9708 C.3     1  UNL1        0.1038
      7 C         140.9224  140.8904  159.1847 C.3     1  UNL1        0.1470
      8 C         141.0502  142.1615  158.3986 C.3     1  UNL1        0.1035
      9 O         139.5923  140.4886  159.7498 O.3     1  UNL1       -0.3530
     10 C         139.9757  144.3020  157.3915 C.3     1  UNL1        0.0913
     11 C         140.5291  145.5344  158.0433 C.3     1  UNL1        0.1087
     12 N         140.0491  145.9431  159.4044 N.3     1  UNL1       -0.1780
     13 H         140.3166  146.9193  159.5302 H       1  UNL1        0.1488
     14 S         140.5237  145.2039  160.6203 S.O2    1  UNL1        0.0603
     15 O         139.1375  145.2528  161.1911 O.2     1  UNL1       -0.1530
     16 O         141.9099  145.1550  160.0494 O.2     1  UNL1       -0.1530
     17 C         141.9477  142.9864  164.2679 C.ar    1  UNL1        0.0685
     18 C         142.3575  144.4127  164.0497 C.ar    1  UNL1        0.0116
     19 C         141.8829  145.1520  162.8338 C.ar    1  UNL1        0.0206
     20 C         140.9984  144.4648  161.8361 C.ar    1  UNL1        0.1220
     21 C         140.5885  143.0384  162.0543 C.ar    1  UNL1        0.0206
     22 C         141.0631  142.2993  163.2702 C.ar    1  UNL1        0.0116
     23 N         142.8969  141.5081  166.6997 N.1     1  UNL1       -0.1908
     24 C         142.4223  142.2473  165.4837 C.1     1  UNL1        0.1004
     25 C         139.3366  137.9464  161.3219 C.3     1  UNL1        0.1223
     26 C         139.9159  137.8570  162.7027 C.ar    1  UNL1        0.1167
     27 N         140.9649  136.8860  163.1575 N.ar    1  UNL1       -0.0800
     28 O         141.2452  137.1517  164.6070 O.2     1  UNL1       -0.3537
     29 C         140.3694  138.2869  165.0480 C.ar    1  UNL1        0.1765
     30 C         140.2138  138.9800  166.3691 C.ar    1  UNL1        0.0402
     31 C         139.2368  140.1088  166.5133 C.ar    1  UNL1        0.0032
     32 C         138.4152  140.5447  165.3364 C.ar    1  UNL1        0.0002
     33 C         138.5708  139.8516  164.0153 C.ar    1  UNL1        0.0045
     34 C         139.5479  138.7227  163.8711 C.ar    1  UNL1        0.0552
@<TRIPOS>BOND
     1    23    24    3
     2    24    17    1
     3    17    18   ar
     4    18    19   ar
     5    19    20   ar
     6    20    14    1
     7    14    15    2
     8    14    16    2
     9    14    12    1
    10    12    11    1
    11    11    10    1
    12    10     1    1
    13     1     2    1
    14     2     3    1
    15     3     4    1
    16     4     5    1
    17     5    25    1
    18    25    26    1
    19    26    27   ar
    20    27    28   ar
    21    28    29   ar
    22    29    30   ar
    23    30    31   ar
    24    31    32   ar
    25    32    33   ar
    26    33    34   ar
    27     5     6    1
    28     6     7    1
    29     7     8    1
    30     7     9    1
    31    20    21   ar
    32    21    22   ar
    33    22    17   ar
    34     8     1    1
    35     9     3    1
    36    34    26   ar
    37    34    29   ar
    38    12    13    1
@<TRIPOS>MOLECULE
*****
 34 38 0 0 0
SMALL
GASTEIGER

@<TRIPOS>ATOM
      1 N         142.7433  140.6347  167.8411 N.3     1  UNL1       -0.2673
      2 C         143.1667  142.0735  167.8240 C.3     1  UNL1        0.1035
      3 C         143.6511  142.6976  166.5489 C.3     1  UNL1        0.1470
      4 C         144.1357  143.3217  165.2738 C.3     1  UNL1        0.1038
      5 N         144.1968  142.5069  164.0160 N.3     1  UNL1       -0.2633
      6 C         143.7735  141.0679  164.0332 C.3     1  UNL1        0.1038
      7 C         143.2890  140.4439  165.3082 C.3     1  UNL1        0.1470
      8 C         142.8045  139.8198  166.5833 C.3     1  UNL1        0.1035
      9 O         143.7123  141.8827  165.2911 O.3     1  UNL1       -0.3530
     10 C         142.2588  140.0105  169.1162 C.3     1  UNL1        0.0913
     11 C         140.7898  139.8066  169.3405 C.3     1  UNL1        0.1087
     12 N         139.7979  140.7332  168.7021 N.3     1  UNL1       -0.1780
     13 H         138.9481  140.6876  169.2644 H       1  UNL1        0.1488
     14 S         139.3850  140.5224  167.2755 S.O2    1  UNL1        0.0603
     15 O         139.9056  141.8844  166.9236 O.2     1  UNL1       -0.1530
     16 O         138.8644  139.1604  167.6275 O.2     1  UNL1       -0.1530
     17 C         138.1463  139.8899  162.9959 C.ar    1  UNL1        0.0685
     18 C         138.0055  141.2442  163.6250 C.ar    1  UNL1        0.0116
     19 C         138.4184  141.4551  165.0517 C.ar    1  UNL1        0.0206
     20 C         138.9721  140.3116  165.8490 C.ar    1  UNL1        0.1220
     21 C         139.1130  138.9572  165.2197 C.ar    1  UNL1        0.0206
     22 C         138.7001  138.7464  163.7932 C.ar    1  UNL1        0.0116
     23 N         137.3205  139.4683  160.1427 N.1     1  UNL1       -0.1908
     24 C         137.7335  139.6791  161.5693 C.1     1  UNL1        0.1004
     25 C         144.6813  143.1309  162.7409 C.3     1  UNL1        0.1223
     26 C         143.6962  143.5589  161.6937 C.ar    1  UNL1        0.1167
     27 N         143.8072  143.2995  160.2205 N.ar    1  UNL1       -0.0800
     28 O         142.6068  143.9017  159.5522 O.2     1  UNL1       -0.3537
     29 C         141.7541  144.5332  160.6124 C.ar    1  UNL1        0.1765
     30 C         140.4515  145.2739  160.5437 C.ar    1  UNL1        0.0402
     31 C         139.8223  145.8026  161.7984 C.ar    1  UNL1        0.0032
     32 C         140.4956  145.5908  163.1220 C.ar    1  UNL1        0.0002
     33 C         141.7982  144.8502  163.1907 C.ar    1  UNL1        0.0045
     34 C         142.4274  144.3214  161.9359 C.ar    1  UNL1        0.0552
@<TRIPOS>BOND
     1    23    24    3
     2    24    17    1
     3    17    18   ar
     4    18    19   ar
     5    19    20   ar
     6    20    14    1
     7    14    15    2
     8    14    16    2
     9    14    12    1
    10    12    11    1
    11    11    10    1
    12    10     1    1
    13     1     2    1
    14     2     3    1
    15     3     4    1
    16     4     5    1
    17     5    25    1
    18    25    26    1
    19    26    27   ar
    20    27    28   ar
    21    28    29   ar
    22    29    30   ar
    23    30    31   ar
    24    31    32   ar
    25    32    33   ar
    26    33    34   ar
    27     5     6    1
    28     6     7    1
    29     7     8    1
    30     7     9    1
    31    20    21   ar
    32    21    22   ar
    33    22    17   ar
    34     8     1    1
    35     9     3    1
    36    34    26   ar
    37    34    29   ar
    38    12    13    1
@<TRIPOS>MOLECULE
*****
 34 38 0 0 0
SMALL
GASTEIGER

@<TRIPOS>ATOM
      1 N         141.7243  142.3826  159.7520 N.3     1  UNL1       -0.2673
      2 C         142.6132  143.2295  160.6136 C.3     1  UNL1        0.1035
      3 C         143.3866  142.6039  161.7363 C.3     1  UNL1        0.1470
      4 C         144.1601  141.9782  162.8590 C.3     1  UNL1        0.1038
      5 N         144.0446  140.5056  163.1200 N.3     1  UNL1       -0.2633
      6 C         143.1556  139.6587  162.2583 C.3     1  UNL1        0.1038
      7 C         142.3822  140.2843  161.1356 C.3     1  UNL1        0.1470
      8 C         141.6088  140.9100  160.0130 C.3     1  UNL1        0.1035
      9 O         143.2711  141.1313  161.9973 O.3     1  UNL1       -0.3530
     10 C         140.9508  143.0082  158.6293 C.3     1  UNL1        0.0913
     11 C         139.4917  142.7031  158.4625 C.3     1  UNL1        0.1087
     12 N         138.5101  143.1372  159.5104 N.3     1  UNL1       -0.1780
     13 H         138.7296  144.1075  159.7356 H       1  UNL1        0.1488
     14 S         138.4280  142.3983  160.8132 S.O2    1  UNL1        0.0603
     15 O         138.2149  141.1126  160.0705 O.2     1  UNL1       -0.1530
     16 O         138.6412  143.6839  161.5558 O.2     1  UNL1       -0.1530
     17 C         138.1818  140.1815  164.7215 C.ar    1  UNL1        0.0685
     18 C         138.3821  139.4253  163.4417 C.ar    1  UNL1        0.0116
     19 C         138.4642  140.1642  162.1389 C.ar    1  UNL1        0.0206
     20 C         138.3460  141.6594  162.1159 C.ar    1  UNL1        0.1220
     21 C         138.1457  142.4156  163.3958 C.ar    1  UNL1        0.0206
     22 C         138.0636  141.6767  164.6986 C.ar    1  UNL1        0.0116
     23 N         138.0178  138.7036  167.3271 N.1     1  UNL1       -0.1908
     24 C         138.0998  139.4426  166.0243 C.1     1  UNL1        0.1004
     25 C         144.8180  139.8800  164.2426 C.3     1  UNL1        0.1223
     26 C         144.1136  139.4715  165.5024 C.ar    1  UNL1        0.1167
     27 N         144.4158  138.2553  166.3267 N.ar    1  UNL1       -0.0800
     28 O         143.4723  138.2395  167.4928 O.2     1  UNL1       -0.3537
     29 C         142.5870  139.4460  167.3890 C.ar    1  UNL1        0.1765
     30 C         141.4711  139.9497  168.2557 C.ar    1  UNL1        0.0402
     31 C         140.7517  141.2146  167.8923 C.ar    1  UNL1        0.0032
     32 C         141.1480  141.9761  166.6621 C.ar    1  UNL1        0.0002
     33 C         142.2638  141.4724  165.7954 C.ar    1  UNL1        0.0045
     34 C         142.9833  140.2073  166.1589 C.ar    1  UNL1        0.0552
@<TRIPOS>BOND
     1    23    24    3
     2    24    17    1
     3    17    18   ar
     4    18    19   ar
     5    19    20   ar
     6    20    14    1
     7    14    15    2
     8    14    16    2
     9    14    12    1
    10    12    11    1
    11    11    10    1
    12    10     1    1
    13     1     2    1
    14     2     3    1
    15     3     4    1
    16     4     5    1
    17     5    25    1
    18    25    26    1
    19    26    27   ar
    20    27    28   ar
    21    28    29   ar
    22    29    30   ar
    23    30    31   ar
    24    31    32   ar
    25    32    33   ar
    26    33    34   ar
    27     5     6    1
    28     6     7    1
    29     7     8    1
    30     7     9    1
    31    20    21   ar
    32    21    22   ar
    33    22    17   ar
    34     8     1    1
    35     9     3    1
    36    34    26   ar
    37    34    29   ar
    38    12    13    1
@<TRIPOS>MOLECULE
*****
 34 38 0 0 0
SMALL
GASTEIGER

@<TRIPOS>ATOM
      1 N         139.1661  139.0701  161.0343 N.3     1  UNL1       -0.2673
      2 C         139.6323  137.8831  161.8239 C.3     1  UNL1        0.1035
      3 C         139.3568  137.8067  163.2964 C.3     1  UNL1        0.1470
      4 C         139.0813  137.7302  164.7690 C.3     1  UNL1        0.1038
      5 N         138.3397  138.8409  165.4519 N.3     1  UNL1       -0.2633
      6 C         137.8736  140.0281  164.6622 C.3     1  UNL1        0.1038
      7 C         138.1490  140.1045  163.1897 C.3     1  UNL1        0.1470
      8 C         138.4245  140.1808  161.7172 C.3     1  UNL1        0.1035
      9 O         138.6152  138.9174  163.9793 O.3     1  UNL1       -0.3530
     10 C         139.4416  139.1466  159.5618 C.3     1  UNL1        0.0913
     11 C         140.6666  139.8545  159.0637 C.3     1  UNL1        0.1087
     12 N         140.8242  141.3292  159.2885 N.3     1  UNL1       -0.1780
     13 H         141.2765  141.7073  158.4561 H       1  UNL1        0.1488
     14 S         141.6029  141.8289  160.4691 S.O2    1  UNL1        0.0603
     15 O         140.5463  142.8613  160.7291 O.2     1  UNL1       -0.1530
     16 O         142.6595  140.7965  160.2092 O.2     1  UNL1       -0.1530
     17 C         143.9390  143.3281  164.0110 C.ar    1  UNL1        0.0685
     18 C         144.3978  142.1054  163.2731 C.ar    1  UNL1        0.0116
     19 C         143.6191  141.6056  162.0924 C.ar    1  UNL1        0.0206
     20 C         142.3816  142.3286  161.6497 C.ar    1  UNL1        0.1220
     21 C         141.9228  143.5513  162.3877 C.ar    1  UNL1        0.0206
     22 C         142.7015  144.0510  163.5683 C.ar    1  UNL1        0.0116
     23 N         145.4965  144.3275  166.3723 N.1     1  UNL1       -0.1908
     24 C         144.7177  143.8278  165.1917 C.1     1  UNL1        0.1004
     25 C         138.0642  138.7646  166.9243 C.3     1  UNL1        0.1223
     26 C         138.9004  139.5561  167.8859 C.ar    1  UNL1        0.1167
     27 N         138.5770  139.8176  169.3270 N.ar    1  UNL1       -0.0800
     28 O         139.6834  140.6482  169.9069 O.2     1  UNL1       -0.3537
     29 C         140.6905  140.8998  168.8241 C.ar    1  UNL1        0.1765
     30 C         141.9857  141.6564  168.8140 C.ar    1  UNL1        0.0402
     31 C         142.7968  141.7380  167.5550 C.ar    1  UNL1        0.0032
     32 C         142.3129  141.0630  166.3059 C.ar    1  UNL1        0.0002
     33 C         141.0177  140.3065  166.3159 C.ar    1  UNL1        0.0045
     34 C         140.2065  140.2249  167.5750 C.ar    1  UNL1        0.0552
@<TRIPOS>BOND
     1    23    24    3
     2    24    17    1
     3    17    18   ar
     4    18    19   ar
     5    19    20   ar
     6    20    14    1
     7    14    15    2
     8    14    16    2
     9    14    12    1
    10    12    11    1
    11    11    10    1
    12    10     1    1
    13     1     2    1
    14     2     3    1
    15     3     4    1
    16     4     5    1
    17     5    25    1
    18    25    26    1
    19    26    27   ar
    20    27    28   ar
    21    28    29   ar
    22    29    30   ar
    23    30    31   ar
    24    31    32   ar
    25    32    33   ar
    26    33    34   ar
    27     5     6    1
    28     6     7    1
    29     7     8    1
    30     7     9    1
    31    20    21   ar
    32    21    22   ar
    33    22    17   ar
    34     8     1    1
    35     9     3    1
    36    34    26   ar
    37    34    29   ar
    38    12    13    1
