@<TRIPOS>MOLECULE
*****
 25 27 0 0 0
SMALL
GASTEIGER

@<TRIPOS>ATOM
      1 O         144.5803  143.1169  165.0300 O.2     1  UNL1       -0.2651
      2 C         143.1848  143.5763  164.7275 C.ar    1  UNL1        0.2807
      3 C         142.9594  144.7144  163.7768 C.ar    1  UNL1        0.0674
      4 C         141.5639  145.1739  163.4743 C.ar    1  UNL1        0.0641
      5 C         140.3938  144.4952  164.1225 C.ar    1  UNL1        0.2424
      6 N         140.6192  143.3571  165.0732 N.ar    1  UNL1       -0.1248
      7 N         142.0147  142.8977  165.3757 N.ar    1  UNL1       -0.1916
      8 C         142.2400  141.7595  166.3265 C.ar    1  UNL1        0.0871
      9 C         142.1628  140.3446  165.8343 C.ar    1  UNL1        0.0216
     10 C         142.3881  139.2065  166.7850 C.ar    1  UNL1        0.0321
     11 C         142.6907  139.4832  168.2279 C.ar    1  UNL1        0.1507
     12 F         142.9160  138.3451  169.1786 F       1  UNL1       -0.2033
     13 C         142.7680  140.8980  168.7201 C.ar    1  UNL1        0.0865
     14 CL        143.0706  141.1748  170.1629 Cl      1  UNL1       -0.0799
     15 C         142.5427  142.0362  167.7693 C.ar    1  UNL1        0.0329
     16 O         138.9983  144.9546  163.8200 O.3     1  UNL1       -0.4592
     17 C         138.0890  144.0961  162.9918 C.3     1  UNL1        0.2086
     18 C         137.5088  142.8405  163.5721 C.3     1  UNL1        0.0647
     19 C         137.6772  141.5345  162.8536 C.3     1  UNL1        0.0759
     20 N         138.1078  140.3127  163.6097 N.3     1  UNL1       -0.2726
     21 C         138.2118  140.3542  165.1055 C.3     1  UNL1        0.0721
     22 C         138.6423  139.1323  165.8615 C.3     1  UNL1        0.0174
     23 C         138.9688  137.8689  165.1218 C.3     1  UNL1        0.0029
     24 C         138.8647  137.8273  163.6260 C.3     1  UNL1        0.0174
     25 C         138.4342  139.0492  162.8699 C.3     1  UNL1        0.0721
@<TRIPOS>BOND
     1     1     2    2
     2     2     3   ar
     3     3     4   ar
     4     4     5   ar
     5     5    16    1
     6    16    17    1
     7    17    18    1
     8    18    19    1
     9    19    20    1
    10    20    21    1
    11    21    22    1
    12    22    23    1
    13    23    24    1
    14    24    25    1
    15     5     6   ar
    16     6     7   ar
    17     7     8    1
    18     8     9   ar
    19     9    10   ar
    20    10    11   ar
    21    11    12    1
    22    11    13   ar
    23    13    14    1
    24    13    15   ar
    25     7     2   ar
    26    15     8   ar
    27    25    20    1
@<TRIPOS>MOLECULE
*****
 25 27 0 0 0
SMALL
GASTEIGER

@<TRIPOS>ATOM
      1 O         143.5234  138.0681  165.9492 O.2     1  UNL1       -0.2651
      2 C         143.6079  139.2466  165.0252 C.ar    1  UNL1        0.2807
      3 C         144.9160  139.6051  164.3846 C.ar    1  UNL1        0.0674
      4 C         145.0005  140.7837  163.4605 C.ar    1  UNL1        0.0641
      5 C         143.7769  141.6037  163.1771 C.ar    1  UNL1        0.2424
      6 N         142.4689  141.2452  163.8177 N.ar    1  UNL1       -0.1248
      7 N         142.3844  140.0667  164.7417 N.ar    1  UNL1       -0.1916
      8 C         141.0762  139.7082  165.3824 C.ar    1  UNL1        0.0871
      9 C         140.0519  138.9296  164.6112 C.ar    1  UNL1        0.0216
     10 C         138.7438  138.5712  165.2517 C.ar    1  UNL1        0.0321
     11 C         138.4600  138.9912  166.6635 C.ar    1  UNL1        0.1507
     12 F         137.1519  138.6327  167.3041 F       1  UNL1       -0.2033
     13 C         139.4843  139.7698  167.4347 C.ar    1  UNL1        0.0865
     14 CL        139.2005  140.1898  168.8464 Cl      1  UNL1       -0.0799
     15 C         140.7924  140.1283  166.7941 C.ar    1  UNL1        0.0329
     16 O         143.8614  142.7823  162.2530 O.3     1  UNL1       -0.4592
     17 C         144.0763  144.1583  162.8101 C.3     1  UNL1        0.2086
     18 C         143.2065  144.6606  163.9242 C.3     1  UNL1        0.0647
     19 C         141.9282  145.3806  163.6113 C.3     1  UNL1        0.0759
     20 N         140.6097  144.7076  163.8534 N.3     1  UNL1       -0.2726
     21 C         139.4256  145.0482  162.9980 C.3     1  UNL1        0.0721
     22 C         138.1071  144.3751  163.2401 C.3     1  UNL1        0.0174
     23 C         137.9728  143.3615  164.3375 C.3     1  UNL1        0.0029
     24 C         139.1570  143.0209  165.1930 C.3     1  UNL1        0.0174
     25 C         140.4754  143.6939  164.9509 C.3     1  UNL1        0.0721
@<TRIPOS>BOND
     1     1     2    2
     2     2     3   ar
     3     3     4   ar
     4     4     5   ar
     5     5    16    1
     6    16    17    1
     7    17    18    1
     8    18    19    1
     9    19    20    1
    10    20    21    1
    11    21    22    1
    12    22    23    1
    13    23    24    1
    14    24    25    1
    15     5     6   ar
    16     6     7   ar
    17     7     8    1
    18     8     9   ar
    19     9    10   ar
    20    10    11   ar
    21    11    12    1
    22    11    13   ar
    23    13    14    1
    24    13    15   ar
    25     7     2   ar
    26    15     8   ar
    27    25    20    1
@<TRIPOS>MOLECULE
*****
 25 27 0 0 0
SMALL
GASTEIGER

@<TRIPOS>ATOM
      1 O         137.3109  142.5829  162.4891 O.2     1  UNL1       -0.2651
      2 C         138.5806  143.2871  162.8661 C.ar    1  UNL1        0.2807
      3 C         138.8190  144.6971  162.4136 C.ar    1  UNL1        0.0674
      4 C         140.0887  145.4013  162.7906 C.ar    1  UNL1        0.0641
      5 C         141.1199  144.6953  163.6203 C.ar    1  UNL1        0.2424
      6 N         140.8814  143.2853  164.0728 N.ar    1  UNL1       -0.1248
      7 N         139.6118  142.5812  163.6957 N.ar    1  UNL1       -0.1916
      8 C         139.3733  141.1710  164.1483 C.ar    1  UNL1        0.0871
      9 C         138.5949  140.9076  165.4032 C.ar    1  UNL1        0.0216
     10 C         138.3565  139.4976  165.8558 C.ar    1  UNL1        0.0321
     11 C         138.8965  138.3509  165.0535 C.ar    1  UNL1        0.1507
     12 F         138.6580  136.9408  165.5062 F       1  UNL1       -0.2033
     13 C         139.6749  138.6143  163.7987 C.ar    1  UNL1        0.0865
     14 CL        140.2149  137.4677  162.9965 Cl      1  UNL1       -0.0799
     15 C         139.9133  140.0244  163.3461 C.ar    1  UNL1        0.0329
     16 O         142.3895  145.3995  163.9973 O.3     1  UNL1       -0.4592
     17 C         143.7118  144.7202  163.7972 C.3     1  UNL1        0.2086
     18 C         144.2654  143.8264  164.8671 C.3     1  UNL1        0.0647
     19 C         144.6205  142.4046  164.5470 C.3     1  UNL1        0.0759
     20 N         143.8394  141.2802  165.1599 N.3     1  UNL1       -0.2726
     21 C         143.9224  139.9022  164.5734 C.3     1  UNL1        0.0721
     22 C         143.1412  138.7779  165.1863 C.3     1  UNL1        0.0174
     23 C         142.2770  139.0316  166.3857 C.3     1  UNL1        0.0029
     24 C         142.1940  140.4096  166.9724 C.3     1  UNL1        0.0174
     25 C         142.9751  141.5340  166.3595 C.3     1  UNL1        0.0721
@<TRIPOS>BOND
     1     1     2    2
     2     2     3   ar
     3     3     4   ar
     4     4     5   ar
     5     5    16    1
     6    16    17    1
     7    17    18    1
     8    18    19    1
     9    19    20    1
    10    20    21    1
    11    21    22    1
    12    22    23    1
    13    23    24    1
    14    24    25    1
    15     5     6   ar
    16     6     7   ar
    17     7     8    1
    18     8     9   ar
    19     9    10   ar
    20    10    11   ar
    21    11    12    1
    22    11    13   ar
    23    13    14    1
    24    13    15   ar
    25     7     2   ar
    26    15     8   ar
    27    25    20    1
@<TRIPOS>MOLECULE
*****
 25 27 0 0 0
SMALL
GASTEIGER

@<TRIPOS>ATOM
      1 O         142.6465  139.1745  165.9011 O.2     1  UNL1       -0.2651
      2 C         142.0268  140.2667  165.0807 C.ar    1  UNL1        0.2807
      3 C         141.9072  140.1119  163.5936 C.ar    1  UNL1        0.0674
      4 C         141.2874  141.2041  162.7732 C.ar    1  UNL1        0.0641
      5 C         140.7873  142.4511  163.4400 C.ar    1  UNL1        0.2424
      6 N         140.9069  142.6060  164.9272 N.ar    1  UNL1       -0.1248
      7 N         141.5267  141.5138  165.7475 N.ar    1  UNL1       -0.1916
      8 C         141.6463  141.6686  167.2348 C.ar    1  UNL1        0.0871
      9 C         140.4564  141.4179  168.1130 C.ar    1  UNL1        0.0216
     10 C         140.5759  141.5727  169.6002 C.ar    1  UNL1        0.0321
     11 C         141.8854  141.9784  170.2092 C.ar    1  UNL1        0.1507
     12 F         142.0049  142.1333  171.6963 F       1  UNL1       -0.2033
     13 C         143.0753  142.2292  169.3309 C.ar    1  UNL1        0.0865
     14 CL        144.3847  142.6348  169.9398 Cl      1  UNL1       -0.0799
     15 C         142.9557  142.0743  167.8437 C.ar    1  UNL1        0.0329
     16 O         140.1676  143.5434  162.6197 O.3     1  UNL1       -0.4592
     17 C         138.7022  143.5033  162.3021 C.3     1  UNL1        0.2086
     18 C         137.7667  142.7202  163.1748 C.3     1  UNL1        0.0647
     19 C         137.3823  141.3206  162.7960 C.3     1  UNL1        0.0759
     20 N         137.9590  140.1558  163.5447 N.3     1  UNL1       -0.2726
     21 C         138.3563  138.9121  162.8063 C.3     1  UNL1        0.0721
     22 C         138.9330  137.7472  163.5550 C.3     1  UNL1        0.0174
     23 C         139.1124  137.8261  165.0421 C.3     1  UNL1        0.0029
     24 C         138.7151  139.0699  165.7806 C.3     1  UNL1        0.0174
     25 C         138.1384  140.2347  165.0319 C.3     1  UNL1        0.0721
@<TRIPOS>BOND
     1     1     2    2
     2     2     3   ar
     3     3     4   ar
     4     4     5   ar
     5     5    16    1
     6    16    17    1
     7    17    18    1
     8    18    19    1
     9    19    20    1
    10    20    21    1
    11    21    22    1
    12    22    23    1
    13    23    24    1
    14    24    25    1
    15     5     6   ar
    16     6     7   ar
    17     7     8    1
    18     8     9   ar
    19     9    10   ar
    20    10    11   ar
    21    11    12    1
    22    11    13   ar
    23    13    14    1
    24    13    15   ar
    25     7     2   ar
    26    15     8   ar
    27    25    20    1
@<TRIPOS>MOLECULE
*****
 25 27 0 0 0
SMALL
GASTEIGER

@<TRIPOS>ATOM
      1 O         140.2022  137.1283  164.8253 O.2     1  UNL1       -0.2651
      2 C         139.4399  138.3043  164.2908 C.ar    1  UNL1        0.2807
      3 C         138.7088  138.1938  162.9857 C.ar    1  UNL1        0.0674
      4 C         137.9464  139.3699  162.4512 C.ar    1  UNL1        0.0641
      5 C         137.9152  140.6564  163.2217 C.ar    1  UNL1        0.2424
      6 N         138.6463  140.7669  164.5268 N.ar    1  UNL1       -0.1248
      7 N         139.4087  139.5909  165.0613 N.ar    1  UNL1       -0.1916
      8 C         140.1398  139.7014  166.3664 C.ar    1  UNL1        0.0871
      9 C         141.6345  139.5802  166.4013 C.ar    1  UNL1        0.0216
     10 C         142.3657  139.6907  167.7064 C.ar    1  UNL1        0.0321
     11 C         141.6021  139.9225  168.9766 C.ar    1  UNL1        0.1507
     12 F         142.3333  140.0331  170.2816 F       1  UNL1       -0.2033
     13 C         140.1075  140.0438  168.9417 C.ar    1  UNL1        0.0865
     14 CL        139.3439  140.2755  170.2118 Cl      1  UNL1       -0.0799
     15 C         139.3763  139.9332  167.6365 C.ar    1  UNL1        0.0329
     16 O         137.1528  141.8325  162.6872 O.3     1  UNL1       -0.4592
     17 C         137.8875  143.0589  162.2332 C.3     1  UNL1        0.2086
     18 C         137.8680  144.2998  163.0758 C.3     1  UNL1        0.0647
     19 C         138.6539  144.3519  164.3524 C.3     1  UNL1        0.0759
     20 N         140.1493  144.2394  164.3176 N.3     1  UNL1       -0.2726
     21 C         140.8453  143.2258  165.1767 C.3     1  UNL1        0.0721
     22 C         142.3407  143.1133  165.1419 C.3     1  UNL1        0.0174
     23 C         143.1400  144.0143  164.2479 C.3     1  UNL1        0.0029
     24 C         142.4440  145.0279  163.3887 C.3     1  UNL1        0.0174
     25 C         140.9486  145.1405  163.4235 C.3     1  UNL1        0.0721
@<TRIPOS>BOND
     1     1     2    2
     2     2     3   ar
     3     3     4   ar
     4     4     5   ar
     5     5    16    1
     6    16    17    1
     7    17    18    1
     8    18    19    1
     9    19    20    1
    10    20    21    1
    11    21    22    1
    12    22    23    1
    13    23    24    1
    14    24    25    1
    15     5     6   ar
    16     6     7   ar
    17     7     8    1
    18     8     9   ar
    19     9    10   ar
    20    10    11   ar
    21    11    12    1
    22    11    13   ar
    23    13    14    1
    24    13    15   ar
    25     7     2   ar
    26    15     8   ar
    27    25    20    1
@<TRIPOS>MOLECULE
*****
 25 27 0 0 0
SMALL
GASTEIGER

@<TRIPOS>ATOM
      1 O         139.2076  144.1220  165.6841 O.2     1  UNL1       -0.2651
      2 C         138.8647  142.9088  164.8714 C.ar    1  UNL1        0.2807
      3 C         137.8452  143.0038  163.7753 C.ar    1  UNL1        0.0674
      4 C         137.5023  141.7906  162.9626 C.ar    1  UNL1        0.0641
      5 C         138.1791  140.4823  163.2459 C.ar    1  UNL1        0.2424
      6 N         139.1987  140.3872  164.3420 N.ar    1  UNL1       -0.1248
      7 N         139.5415  141.6005  165.1547 N.ar    1  UNL1       -0.1916
      8 C         140.5611  141.5053  166.2508 C.ar    1  UNL1        0.0871
      9 C         141.8345  142.2931  166.1610 C.ar    1  UNL1        0.0216
     10 C         142.8541  142.1980  167.2571 C.ar    1  UNL1        0.0321
     11 C         142.6004  141.3151  168.4429 C.ar    1  UNL1        0.1507
     12 F         143.6200  141.2200  169.5390 F       1  UNL1       -0.2033
     13 C         141.3270  140.5274  168.5327 C.ar    1  UNL1        0.0865
     14 CL        141.0733  139.6445  169.7185 Cl      1  UNL1       -0.0799
     15 C         140.3074  140.6225  167.4366 C.ar    1  UNL1        0.0329
     16 O         137.8363  139.2691  162.4332 O.3     1  UNL1       -0.4592
     17 C         138.5150  137.9614  162.7147 C.3     1  UNL1        0.2086
     18 C         139.9560  137.7694  162.3451 C.3     1  UNL1        0.0647
     19 C         140.9068  137.1533  163.3282 C.3     1  UNL1        0.0759
     20 N         142.1025  137.9261  163.8004 N.3     1  UNL1       -0.2726
     21 C         143.0800  138.4775  162.8052 C.3     1  UNL1        0.0721
     22 C         144.2757  139.2503  163.2774 C.3     1  UNL1        0.0174
     23 C         144.4940  139.4717  164.7448 C.3     1  UNL1        0.0029
     24 C         143.5165  138.9203  165.7401 C.3     1  UNL1        0.0174
     25 C         142.3208  138.1475  165.2679 C.3     1  UNL1        0.0721
@<TRIPOS>BOND
     1     1     2    2
     2     2     3   ar
     3     3     4   ar
     4     4     5   ar
     5     5    16    1
     6    16    17    1
     7    17    18    1
     8    18    19    1
     9    19    20    1
    10    20    21    1
    11    21    22    1
    12    22    23    1
    13    23    24    1
    14    24    25    1
    15     5     6   ar
    16     6     7   ar
    17     7     8    1
    18     8     9   ar
    19     9    10   ar
    20    10    11   ar
    21    11    12    1
    22    11    13   ar
    23    13    14    1
    24    13    15   ar
    25     7     2   ar
    26    15     8   ar
    27    25    20    1
@<TRIPOS>MOLECULE
*****
 25 27 0 0 0
SMALL
GASTEIGER

@<TRIPOS>ATOM
      1 O         143.4818  137.9584  166.0149 O.2     1  UNL1       -0.2651
      2 C         143.7858  139.2935  165.4026 C.ar    1  UNL1        0.2807
      3 C         144.9480  139.4419  164.4660 C.ar    1  UNL1        0.0674
      4 C         145.2521  140.7770  163.8536 C.ar    1  UNL1        0.0641
      5 C         144.3940  141.9638  164.1779 C.ar    1  UNL1        0.2424
      6 N         143.2318  141.8154  165.1146 N.ar    1  UNL1       -0.1248
      7 N         142.9277  140.4803  165.7269 N.ar    1  UNL1       -0.1916
      8 C         141.7655  140.3319  166.6635 C.ar    1  UNL1        0.0871
      9 C         141.9157  140.7016  168.1095 C.ar    1  UNL1        0.0216
     10 C         140.7535  140.5532  169.0461 C.ar    1  UNL1        0.0321
     11 C         139.4411  140.0353  168.5368 C.ar    1  UNL1        0.1507
     12 F         138.2790  139.8869  169.4735 F       1  UNL1       -0.2033
     13 C         139.2909  139.6656  167.0909 C.ar    1  UNL1        0.0865
     14 CL        137.9786  139.1476  166.5816 Cl      1  UNL1       -0.0799
     15 C         140.4532  139.8139  166.1542 C.ar    1  UNL1        0.0329
     16 O         144.6981  143.2989  163.5656 O.3     1  UNL1       -0.4592
     17 C         144.0607  143.6904  162.2655 C.3     1  UNL1        0.2086
     18 C         142.5730  143.5924  162.1000 C.3     1  UNL1        0.0647
     19 C         141.6676  144.4513  162.9322 C.3     1  UNL1        0.0759
     20 N         140.3702  143.8983  163.4431 N.3     1  UNL1       -0.2726
     21 C         140.0366  142.4513  163.2318 C.3     1  UNL1        0.0721
     22 C         138.7392  141.8983  163.7428 C.3     1  UNL1        0.0174
     23 C         137.7755  142.7924  164.4650 C.3     1  UNL1        0.0029
     24 C         138.1091  144.2396  164.6764 C.3     1  UNL1        0.0174
     25 C         139.4064  144.7925  164.1654 C.3     1  UNL1        0.0721
@<TRIPOS>BOND
     1     1     2    2
     2     2     3   ar
     3     3     4   ar
     4     4     5   ar
     5     5    16    1
     6    16    17    1
     7    17    18    1
     8    18    19    1
     9    19    20    1
    10    20    21    1
    11    21    22    1
    12    22    23    1
    13    23    24    1
    14    24    25    1
    15     5     6   ar
    16     6     7   ar
    17     7     8    1
    18     8     9   ar
    19     9    10   ar
    20    10    11   ar
    21    11    12    1
    22    11    13   ar
    23    13    14    1
    24    13    15   ar
    25     7     2   ar
    26    15     8   ar
    27    25    20    1
@<TRIPOS>MOLECULE
*****
 25 27 0 0 0
SMALL
GASTEIGER

@<TRIPOS>ATOM
      1 O         143.5805  142.2756  166.2104 O.2     1  UNL1       -0.2651
      2 C         142.4805  142.9771  165.4702 C.ar    1  UNL1        0.2807
      3 C         142.7858  143.7279  164.2081 C.ar    1  UNL1        0.0674
      4 C         141.6858  144.4294  163.4679 C.ar    1  UNL1        0.0641
      5 C         140.2804  144.3800  163.9899 C.ar    1  UNL1        0.2424
      6 N         139.9751  143.6292  165.2520 N.ar    1  UNL1       -0.1248
      7 N         141.0751  142.9278  165.9922 N.ar    1  UNL1       -0.1916
      8 C         140.7697  142.1769  167.2544 C.ar    1  UNL1        0.0871
      9 C         140.8515  140.6793  167.2745 C.ar    1  UNL1        0.0216
     10 C         140.5461  139.9284  168.5366 C.ar    1  UNL1        0.0321
     11 C         140.1590  140.6752  169.7787 C.ar    1  UNL1        0.1507
     12 F         139.8536  139.9244  171.0408 F       1  UNL1       -0.2033
     13 C         140.0773  142.1729  169.7585 C.ar    1  UNL1        0.0865
     14 CL        139.6902  142.9197  171.0004 Cl      1  UNL1       -0.0799
     15 C         140.3827  142.9237  168.4963 C.ar    1  UNL1        0.0329
     16 O         139.1804  145.0815  163.2497 O.3     1  UNL1       -0.4592
     17 C         137.9216  144.3439  162.9015 C.3     1  UNL1        0.2086
     18 C         137.9876  142.9070  162.4759 C.3     1  UNL1        0.0647
     19 C         137.2510  141.8590  163.2565 C.3     1  UNL1        0.0759
     20 N         137.8320  140.4835  163.3992 N.3     1  UNL1       -0.2726
     21 C         137.9516  139.5916  162.1991 C.3     1  UNL1        0.0721
     22 C         138.5326  138.2161  162.3418 C.3     1  UNL1        0.0174
     23 C         138.9939  137.7324  163.6846 C.3     1  UNL1        0.0029
     24 C         138.8743  138.6243  164.8848 C.3     1  UNL1        0.0174
     25 C         138.2933  139.9998  164.7421 C.3     1  UNL1        0.0721
@<TRIPOS>BOND
     1     1     2    2
     2     2     3   ar
     3     3     4   ar
     4     4     5   ar
     5     5    16    1
     6    16    17    1
     7    17    18    1
     8    18    19    1
     9    19    20    1
    10    20    21    1
    11    21    22    1
    12    22    23    1
    13    23    24    1
    14    24    25    1
    15     5     6   ar
    16     6     7   ar
    17     7     8    1
    18     8     9   ar
    19     9    10   ar
    20    10    11   ar
    21    11    12    1
    22    11    13   ar
    23    13    14    1
    24    13    15   ar
    25     7     2   ar
    26    15     8   ar
    27    25    20    1
@<TRIPOS>MOLECULE
*****
 25 27 0 0 0
SMALL
GASTEIGER

@<TRIPOS>ATOM
      1 O         139.2362  144.3903  165.0459 O.2     1  UNL1       -0.2651
      2 C         140.5991  144.0205  164.5403 C.ar    1  UNL1        0.2807
      3 C         141.4530  145.0512  163.8632 C.ar    1  UNL1        0.0674
      4 C         142.8160  144.6814  163.3577 C.ar    1  UNL1        0.0641
      5 C         143.3250  143.2809  163.5291 C.ar    1  UNL1        0.2424
      6 N         142.4711  142.2502  164.2062 N.ar    1  UNL1       -0.1248
      7 N         141.1082  142.6200  164.7118 N.ar    1  UNL1       -0.1916
      8 C         140.2543  141.5892  165.3889 C.ar    1  UNL1        0.0871
      9 C         139.1905  140.8698  164.6136 C.ar    1  UNL1        0.0216
     10 C         138.3367  139.8391  165.2906 C.ar    1  UNL1        0.0321
     11 C         138.5465  139.5277  166.7429 C.ar    1  UNL1        0.1507
     12 F         137.6926  138.4969  167.4199 F       1  UNL1       -0.2033
     13 C         139.6102  140.2471  167.5182 C.ar    1  UNL1        0.0865
     14 CL        139.8200  139.9357  168.9704 Cl      1  UNL1       -0.0799
     15 C         140.4641  141.2778  166.8411 C.ar    1  UNL1        0.0329
     16 O         144.6880  142.9111  163.0235 O.3     1  UNL1       -0.4592
     17 C         144.8479  142.3441  161.6441 C.3     1  UNL1        0.2086
     18 C         143.9635  141.2219  161.1873 C.3     1  UNL1        0.0647
     19 C         144.2419  139.8177  161.6353 C.3     1  UNL1        0.0759
     20 N         143.6784  139.3187  162.9328 N.3     1  UNL1       -0.2726
     21 C         142.2850  138.7656  162.9820 C.3     1  UNL1        0.0721
     22 C         141.7215  138.2666  164.2795 C.3     1  UNL1        0.0174
     23 C         142.5514  138.3208  165.5278 C.3     1  UNL1        0.0029
     24 C         143.9449  138.8740  165.4786 C.3     1  UNL1        0.0174
     25 C         144.5084  139.3729  164.1811 C.3     1  UNL1        0.0721
@<TRIPOS>BOND
     1     1     2    2
     2     2     3   ar
     3     3     4   ar
     4     4     5   ar
     5     5    16    1
     6    16    17    1
     7    17    18    1
     8    18    19    1
     9    19    20    1
    10    20    21    1
    11    21    22    1
    12    22    23    1
    13    23    24    1
    14    24    25    1
    15     5     6   ar
    16     6     7   ar
    17     7     8    1
    18     8     9   ar
    19     9    10   ar
    20    10    11   ar
    21    11    12    1
    22    11    13   ar
    23    13    14    1
    24    13    15   ar
    25     7     2   ar
    26    15     8   ar
    27    25    20    1
