@<TRIPOS>MOLECULE
*****
 48 55 0 0 0
SMALL
GASTEIGER

@<TRIPOS>ATOM
      1 C         140.2474  140.1454  158.8909 C.ar    1  UNL1        0.0192
      2 C         141.4690  140.5389  158.1142 C.ar    1  UNL1        0.0013
      3 C         141.9726  139.6563  157.0108 C.ar    1  UNL1       -0.0029
      4 C         141.2547  138.3804  156.6841 C.ar    1  UNL1       -0.0061
      5 C         140.0332  137.9870  157.4607 C.ar    1  UNL1       -0.0029
      6 C         139.5296  138.8696  158.5641 C.ar    1  UNL1        0.0013
      7 C         139.4280  142.1711  165.0532 C.ar    1  UNL1        0.1335
      8 C         138.5786  143.3646  164.7306 C.ar    1  UNL1        0.0360
      9 C         138.2328  143.6755  163.3045 C.ar    1  UNL1        0.0251
     10 C         138.7365  142.7930  162.2011 C.ar    1  UNL1        0.1171
     11 N         138.3907  143.1040  160.7749 N.ar    1  UNL1       -0.2407
     12 C         138.8943  142.2215  159.6715 C.ar    1  UNL1        0.0989
     13 C         139.7438  141.0280  159.9943 C.ar    1  UNL1        0.1005
     14 N         140.0895  140.7170  161.4204 N.ar    1  UNL1       -0.2237
     15 C         139.5859  141.5996  162.5238 C.ar    1  UNL1        0.1814
     16 N         139.9316  141.2886  163.9498 N.ar    1  UNL1       -0.2104
     17 C         140.8111  140.9271  170.7576 C.3     1  UNL1        0.0897
     18 N         140.4653  141.2382  169.3316 N.3     1  UNL1       -0.2686
     19 C         140.7058  142.6140  168.7844 C.3     1  UNL1        0.0939
     20 C         140.3600  142.9249  167.3583 C.3     1  UNL1        0.1095
     21 N         139.7738  141.8602  166.4794 N.pl3   1  UNL1       -0.2903
     22 C         139.5333  140.4844  167.0265 C.3     1  UNL1        0.1095
     23 C         139.8790  140.1734  168.4526 C.3     1  UNL1        0.0939
     24 C         138.5486  142.5324  158.2455 C.ar    1  UNL1        0.0191
     25 C         137.4087  141.8216  157.5780 C.ar    1  UNL1        0.0015
     26 C         137.0629  142.1326  156.1519 C.ar    1  UNL1        0.0000
     27 C         137.8570  143.1542  155.3932 C.ar    1  UNL1        0.0000
     28 C         138.9969  143.8650  156.0607 C.ar    1  UNL1        0.0000
     29 C         139.3427  143.5541  157.4868 C.ar    1  UNL1        0.0015
     30 C         141.7584  137.4979  155.5807 C.3     1  UNL1        0.0991
     31 N         142.0184  136.0440  155.8427 N.3     1  UNL1       -0.2689
     32 C         141.2283  134.9976  155.1141 C.3     1  UNL1        0.0728
     33 C         141.4883  133.5437  155.3760 C.3     1  UNL1        0.0249
     34 C         142.5384  133.1362  156.3666 C.3     1  UNL1        0.0613
     35 C         143.3285  134.1826  157.0952 C.3     1  UNL1        0.0249
     36 C         143.0685  135.6365  156.8332 C.3     1  UNL1        0.0728
     37 C         142.7985  131.6823  156.6286 C.ar    1  UNL1        0.1397
     38 N         142.2955  130.5342  155.8047 N.ar    1  UNL1       -0.1335
     39 N         142.7933  129.2636  156.4274 N.ar    1  UNL1       -0.1261
     40 C         143.6039  129.6265  157.6363 C.ar    1  UNL1        0.1990
     41 N         143.6071  131.1214  157.7606 N.ar    1  UNL1       -0.3221
     42 H         144.0603  131.6427  158.4620 H       1  UNL1        0.1687
     43 C         144.2908  128.6636  158.5588 C.ar    1  UNL1        0.1988
     44 N         145.3362  127.7297  158.0251 N.ar    1  UNL1       -0.2224
     45 C         146.0231  126.7667  158.9476 C.ar    1  UNL1        0.1023
     46 C         145.6645  126.7378  160.4038 C.ar    1  UNL1        0.0414
     47 C         144.6190  127.6718  160.9375 C.ar    1  UNL1        0.1023
     48 N         143.9323  128.6346  160.0150 N.ar    1  UNL1       -0.2224
@<TRIPOS>BOND
     1    17    18    1
     2    18    19    1
     3    19    20    1
     4    20    21    1
     5    21     7    1
     6     7     8   ar
     7     8     9   ar
     8     9    10   ar
     9    10    11   ar
    10    11    12   ar
    11    12    24    1
    12    24    25   ar
    13    25    26   ar
    14    26    27   ar
    15    27    28   ar
    16    28    29   ar
    17    12    13   ar
    18    13     1    1
    19     1     2   ar
    20     2     3   ar
    21     3     4   ar
    22     4    30    1
    23    30    31    1
    24    31    32    1
    25    32    33    1
    26    33    34    1
    27    34    37    1
    28    37    38   ar
    29    38    39   ar
    30    39    40   ar
    31    40    43    1
    32    43    44   ar
    33    44    45   ar
    34    45    46   ar
    35    46    47   ar
    36    47    48   ar
    37    40    41   ar
    38    34    35    1
    39    35    36    1
    40     4     5   ar
    41     5     6   ar
    42    13    14   ar
    43    14    15   ar
    44    15    16   ar
    45    21    22    1
    46    22    23    1
    47    23    18    1
    48    16     7   ar
    49    15    10   ar
    50    29    24   ar
    51     6     1   ar
    52    36    31    1
    53    41    37   ar
    54    48    43   ar
    55    41    42    1
@<TRIPOS>MOLECULE
*****
 48 55 0 0 0
SMALL
GASTEIGER

@<TRIPOS>ATOM
      1 C         139.7587  140.2335  157.1324 C.ar    1  UNL1        0.0192
      2 C         140.3362  141.2166  158.1072 C.ar    1  UNL1        0.0013
      3 C         141.5619  140.8599  158.8949 C.ar    1  UNL1       -0.0029
      4 C         142.2100  139.5201  158.7079 C.ar    1  UNL1       -0.0061
      5 C         141.6325  138.5371  157.7332 C.ar    1  UNL1       -0.0029
      6 C         140.4069  138.8938  156.9455 C.ar    1  UNL1        0.0013
      7 C         133.3631  140.5987  155.8237 C.ar    1  UNL1        0.1335
      8 C         133.4968  141.3078  154.5087 C.ar    1  UNL1        0.0360
      9 C         134.8561  141.6602  153.9814 C.ar    1  UNL1        0.0251
     10 C         136.0817  141.3035  154.7692 C.ar    1  UNL1        0.1171
     11 N         137.4411  141.6560  154.2419 N.ar    1  UNL1       -0.2407
     12 C         138.6668  141.2993  155.0296 C.ar    1  UNL1        0.0989
     13 C         138.5331  140.5902  156.3447 C.ar    1  UNL1        0.1005
     14 N         137.1737  140.2378  156.8719 N.ar    1  UNL1       -0.2237
     15 C         135.9481  140.5944  156.0842 C.ar    1  UNL1        0.1814
     16 N         134.5888  140.2420  156.6114 N.ar    1  UNL1       -0.2104
     17 C         127.9259  139.1889  157.9330 C.3     1  UNL1        0.0897
     18 N         129.2851  139.5414  157.4057 N.3     1  UNL1       -0.2686
     19 C         129.4279  140.5848  156.3376 C.3     1  UNL1        0.0939
     20 C         130.7872  140.9373  155.8103 C.3     1  UNL1        0.1095
     21 N         132.0038  140.2463  156.3510 N.pl3   1  UNL1       -0.2903
     22 C         131.8610  139.2028  157.4191 C.3     1  UNL1        0.1095
     23 C         130.5018  138.8504  157.9465 C.3     1  UNL1        0.0939
     24 C         140.0261  141.6517  154.5023 C.ar    1  UNL1        0.0191
     25 C         140.8006  140.6511  153.6968 C.ar    1  UNL1        0.0015
     26 C         142.1600  141.0035  153.1695 C.ar    1  UNL1        0.0000
     27 C         142.7448  142.3565  153.4478 C.ar    1  UNL1        0.0000
     28 C         141.9703  143.3570  154.2533 C.ar    1  UNL1        0.0000
     29 C         140.6109  143.0047  154.7806 C.ar    1  UNL1        0.0015
     30 C         143.4357  139.1634  159.4957 C.3     1  UNL1        0.0991
     31 N         143.3783  139.1215  160.9940 N.3     1  UNL1       -0.2689
     32 C         144.2311  140.0528  161.8036 C.3     1  UNL1        0.0728
     33 C         144.1738  140.0109  163.3019 C.3     1  UNL1        0.0249
     34 C         143.2636  139.0376  163.9907 C.3     1  UNL1        0.0613
     35 C         142.4108  138.1063  163.1811 C.3     1  UNL1        0.0249
     36 C         142.4681  138.1483  161.6828 C.3     1  UNL1        0.0728
     37 C         143.2062  138.9957  165.4890 C.ar    1  UNL1        0.1397
     38 N         143.8866  137.9898  166.3696 N.ar    1  UNL1       -0.1335
     39 N         143.5592  138.3247  167.7946 N.ar    1  UNL1       -0.1261
     40 C         142.6766  139.5376  167.7947 C.ar    1  UNL1        0.1990
     41 N         142.4584  139.9522  166.3698 N.ar    1  UNL1       -0.3221
     42 H         141.9191  140.7178  166.0660 H       1  UNL1        0.1687
     43 C         142.1113  140.2165  169.0070 C.ar    1  UNL1        0.1988
     44 N         140.9674  139.5933  169.7507 N.ar    1  UNL1       -0.2224
     45 C         140.4022  140.2723  170.9629 C.ar    1  UNL1        0.1023
     46 C         140.9808  141.5745  171.4315 C.ar    1  UNL1        0.0414
     47 C         142.1248  142.1977  170.6877 C.ar    1  UNL1        0.1023
     48 N         142.6900  141.5187  169.4755 N.ar    1  UNL1       -0.2224
@<TRIPOS>BOND
     1    17    18    1
     2    18    19    1
     3    19    20    1
     4    20    21    1
     5    21     7    1
     6     7     8   ar
     7     8     9   ar
     8     9    10   ar
     9    10    11   ar
    10    11    12   ar
    11    12    24    1
    12    24    25   ar
    13    25    26   ar
    14    26    27   ar
    15    27    28   ar
    16    28    29   ar
    17    12    13   ar
    18    13     1    1
    19     1     2   ar
    20     2     3   ar
    21     3     4   ar
    22     4    30    1
    23    30    31    1
    24    31    32    1
    25    32    33    1
    26    33    34    1
    27    34    37    1
    28    37    38   ar
    29    38    39   ar
    30    39    40   ar
    31    40    43    1
    32    43    44   ar
    33    44    45   ar
    34    45    46   ar
    35    46    47   ar
    36    47    48   ar
    37    40    41   ar
    38    34    35    1
    39    35    36    1
    40     4     5   ar
    41     5     6   ar
    42    13    14   ar
    43    14    15   ar
    44    15    16   ar
    45    21    22    1
    46    22    23    1
    47    23    18    1
    48    16     7   ar
    49    15    10   ar
    50    29    24   ar
    51     6     1   ar
    52    36    31    1
    53    41    37   ar
    54    48    43   ar
    55    41    42    1
@<TRIPOS>MOLECULE
*****
 48 55 0 0 0
SMALL
GASTEIGER

@<TRIPOS>ATOM
      1 C         139.8882  142.1420  158.3539 C.ar    1  UNL1        0.0192
      2 C         138.6606  142.9970  158.2439 C.ar    1  UNL1        0.0013
      3 C         137.6080  142.6705  157.2263 C.ar    1  UNL1       -0.0029
      4 C         137.7831  141.4891  156.3187 C.ar    1  UNL1       -0.0061
      5 C         139.0107  140.6342  156.4287 C.ar    1  UNL1       -0.0029
      6 C         140.0632  140.9607  157.4463 C.ar    1  UNL1        0.0013
      7 C         142.8826  141.9484  164.1630 C.ar    1  UNL1        0.1335
      8 C         144.0168  142.8614  163.8025 C.ar    1  UNL1        0.0360
      9 C         144.0984  143.4479  162.4244 C.ar    1  UNL1        0.0251
     10 C         143.0459  143.1214  161.4068 C.ar    1  UNL1        0.1171
     11 N         143.1276  143.7079  160.0286 N.ar    1  UNL1       -0.2407
     12 C         142.0750  143.3815  159.0109 C.ar    1  UNL1        0.0989
     13 C         140.9408  142.4685  159.3715 C.ar    1  UNL1        0.1005
     14 N         140.8591  141.8820  160.7497 N.ar    1  UNL1       -0.2237
     15 C         141.9117  142.2084  161.7673 C.ar    1  UNL1        0.1814
     16 N         141.8300  141.6220  163.1454 N.ar    1  UNL1       -0.2104
     17 C         142.5557  139.6024  169.6757 C.3     1  UNL1        0.0897
     18 N         142.6374  140.1889  168.2976 N.3     1  UNL1       -0.2686
     19 C         142.5614  139.2942  167.0960 C.3     1  UNL1        0.0939
     20 C         142.6431  139.8807  165.7178 C.3     1  UNL1        0.1095
     21 N         142.8009  141.3619  165.5412 N.pl3   1  UNL1       -0.2903
     22 C         142.8769  142.2566  166.7428 C.3     1  UNL1        0.1095
     23 C         142.7952  141.6701  168.1210 C.3     1  UNL1        0.0939
     24 C         142.1567  143.9680  157.6328 C.ar    1  UNL1        0.0191
     25 C         141.4676  145.2649  157.3276 C.ar    1  UNL1        0.0015
     26 C         141.5492  145.8514  155.9494 C.ar    1  UNL1        0.0000
     27 C         142.3200  145.1410  154.8765 C.ar    1  UNL1        0.0000
     28 C         143.0091  143.8441  155.1816 C.ar    1  UNL1        0.0000
     29 C         142.9275  143.2576  156.5598 C.ar    1  UNL1        0.0015
     30 C         136.7306  141.1626  155.3010 C.3     1  UNL1        0.0991
     31 N         135.3288  140.8612  155.7421 N.3     1  UNL1       -0.2689
     32 C         135.0898  139.9654  156.9211 C.3     1  UNL1        0.0728
     33 C         133.6881  139.6640  157.3622 C.3     1  UNL1        0.0249
     34 C         132.5254  140.2585  156.6240 C.3     1  UNL1        0.0613
     35 C         132.7645  141.1544  155.4449 C.3     1  UNL1        0.0249
     36 C         134.1662  141.4557  155.0039 C.3     1  UNL1        0.0728
     37 C         131.1238  139.9572  157.0650 C.ar    1  UNL1        0.1397
     38 N         129.8682  140.3727  156.3571 N.ar    1  UNL1       -0.1335
     39 N         128.7000  139.8597  157.1459 N.ar    1  UNL1       -0.1261
     40 C         129.2336  139.1272  158.3412 C.ar    1  UNL1        0.1990
     41 N         130.7315  139.1874  158.2912 N.ar    1  UNL1       -0.3221
     42 H         131.3489  138.7913  158.9479 H       1  UNL1        0.1687
     43 C         128.4132  138.4528  159.4006 C.ar    1  UNL1        0.1988
     44 N         128.0214  139.2048  160.6379 N.ar    1  UNL1       -0.2224
     45 C         127.2010  138.5305  161.6972 C.ar    1  UNL1        0.1023
     46 C         126.7724  137.1041  161.5193 C.ar    1  UNL1        0.0414
     47 C         127.1643  136.3520  160.2819 C.ar    1  UNL1        0.1023
     48 N         127.9846  137.0264  159.2226 N.ar    1  UNL1       -0.2224
@<TRIPOS>BOND
     1    17    18    1
     2    18    19    1
     3    19    20    1
     4    20    21    1
     5    21     7    1
     6     7     8   ar
     7     8     9   ar
     8     9    10   ar
     9    10    11   ar
    10    11    12   ar
    11    12    24    1
    12    24    25   ar
    13    25    26   ar
    14    26    27   ar
    15    27    28   ar
    16    28    29   ar
    17    12    13   ar
    18    13     1    1
    19     1     2   ar
    20     2     3   ar
    21     3     4   ar
    22     4    30    1
    23    30    31    1
    24    31    32    1
    25    32    33    1
    26    33    34    1
    27    34    37    1
    28    37    38   ar
    29    38    39   ar
    30    39    40   ar
    31    40    43    1
    32    43    44   ar
    33    44    45   ar
    34    45    46   ar
    35    46    47   ar
    36    47    48   ar
    37    40    41   ar
    38    34    35    1
    39    35    36    1
    40     4     5   ar
    41     5     6   ar
    42    13    14   ar
    43    14    15   ar
    44    15    16   ar
    45    21    22    1
    46    22    23    1
    47    23    18    1
    48    16     7   ar
    49    15    10   ar
    50    29    24   ar
    51     6     1   ar
    52    36    31    1
    53    41    37   ar
    54    48    43   ar
    55    41    42    1
@<TRIPOS>MOLECULE
*****
 48 55 0 0 0
SMALL
GASTEIGER

@<TRIPOS>ATOM
      1 C         142.0965  140.8884  164.0405 C.ar    1  UNL1        0.0192
      2 C         142.8867  142.0974  163.6354 C.ar    1  UNL1        0.0013
      3 C         143.2147  142.3293  162.1902 C.ar    1  UNL1       -0.0029
      4 C         142.7526  141.3522  161.1501 C.ar    1  UNL1       -0.0061
      5 C         141.9625  140.1433  161.5552 C.ar    1  UNL1       -0.0029
      6 C         141.6345  139.9114  163.0004 C.ar    1  UNL1        0.0013
      7 C         142.9130  138.4918  170.0687 C.ar    1  UNL1        0.1335
      8 C         141.6847  139.1104  170.6676 C.ar    1  UNL1        0.0360
      9 C         140.7845  139.9608  169.8213 C.ar    1  UNL1        0.0251
     10 C         141.1125  140.1927  168.3761 C.ar    1  UNL1        0.1171
     11 N         140.2122  141.0432  167.5298 N.ar    1  UNL1       -0.2407
     12 C         140.5402  141.2751  166.0846 C.ar    1  UNL1        0.0989
     13 C         141.7685  140.6565  165.4857 C.ar    1  UNL1        0.1005
     14 N         142.6688  139.8061  166.3320 N.ar    1  UNL1       -0.2237
     15 C         142.3408  139.5742  167.7772 C.ar    1  UNL1        0.1814
     16 N         143.2410  138.7237  168.6235 N.ar    1  UNL1       -0.2104
     17 C         146.5143  135.0901  173.4539 C.3     1  UNL1        0.0897
     18 N         145.6140  135.9405  172.6076 N.3     1  UNL1       -0.2686
     19 C         144.6327  135.2956  171.6743 C.3     1  UNL1        0.0939
     20 C         143.7323  136.1461  170.8280 C.3     1  UNL1        0.1095
     21 N         143.8134  137.6414  170.9150 N.pl3   1  UNL1       -0.2903
     22 C         144.7947  138.2862  171.8484 C.3     1  UNL1        0.1095
     23 C         145.6950  137.4358  172.6947 C.3     1  UNL1        0.0939
     24 C         139.6399  142.1255  165.2383 C.ar    1  UNL1        0.0191
     25 C         139.8233  143.6140  165.2097 C.ar    1  UNL1        0.0015
     26 C         138.9230  144.4644  164.3634 C.ar    1  UNL1        0.0000
     27 C         137.8394  143.8264  163.5457 C.ar    1  UNL1        0.0000
     28 C         137.6560  142.3380  163.5743 C.ar    1  UNL1        0.0000
     29 C         138.5563  141.4875  164.4206 C.ar    1  UNL1        0.0015
     30 C         143.0806  141.5841  159.7049 C.3     1  UNL1        0.0991
     31 N         142.2888  142.5767  158.9060 N.3     1  UNL1       -0.2689
     32 C         140.7928  142.4791  158.8592 C.3     1  UNL1        0.0728
     33 C         140.0010  143.4716  158.0603 C.3     1  UNL1        0.0249
     34 C         140.7055  144.5617  157.3083 C.3     1  UNL1        0.0613
     35 C         142.2016  144.6593  157.3552 C.3     1  UNL1        0.0249
     36 C         142.9932  143.6668  158.1540 C.3     1  UNL1        0.0728
     37 C         139.9138  145.5542  156.5095 C.ar    1  UNL1        0.1397
     38 N         138.6815  145.2580  155.7072 N.ar    1  UNL1       -0.1335
     39 N         138.2215  146.5379  155.0745 N.ar    1  UNL1       -0.1261
     40 C         139.1696  147.6251  155.4858 C.ar    1  UNL1        0.1990
     41 N         140.2155  147.0171  156.3727 N.ar    1  UNL1       -0.3221
     42 H         140.9678  147.4945  156.7914 H       1  UNL1        0.1687
     43 C         139.0864  149.0672  155.0813 C.ar    1  UNL1        0.1988
     44 N         139.5660  149.4948  153.7259 N.ar    1  UNL1       -0.2224
     45 C         139.4828  150.9368  153.3214 C.ar    1  UNL1        0.1023
     46 C         138.9200  151.9513  154.2722 C.ar    1  UNL1        0.0414
     47 C         138.4404  151.5236  155.6278 C.ar    1  UNL1        0.1023
     48 N         138.5236  150.0816  156.0322 N.ar    1  UNL1       -0.2224
@<TRIPOS>BOND
     1    17    18    1
     2    18    19    1
     3    19    20    1
     4    20    21    1
     5    21     7    1
     6     7     8   ar
     7     8     9   ar
     8     9    10   ar
     9    10    11   ar
    10    11    12   ar
    11    12    24    1
    12    24    25   ar
    13    25    26   ar
    14    26    27   ar
    15    27    28   ar
    16    28    29   ar
    17    12    13   ar
    18    13     1    1
    19     1     2   ar
    20     2     3   ar
    21     3     4   ar
    22     4    30    1
    23    30    31    1
    24    31    32    1
    25    32    33    1
    26    33    34    1
    27    34    37    1
    28    37    38   ar
    29    38    39   ar
    30    39    40   ar
    31    40    43    1
    32    43    44   ar
    33    44    45   ar
    34    45    46   ar
    35    46    47   ar
    36    47    48   ar
    37    40    41   ar
    38    34    35    1
    39    35    36    1
    40     4     5   ar
    41     5     6   ar
    42    13    14   ar
    43    14    15   ar
    44    15    16   ar
    45    21    22    1
    46    22    23    1
    47    23    18    1
    48    16     7   ar
    49    15    10   ar
    50    29    24   ar
    51     6     1   ar
    52    36    31    1
    53    41    37   ar
    54    48    43   ar
    55    41    42    1
@<TRIPOS>MOLECULE
*****
 48 55 0 0 0
SMALL
GASTEIGER

@<TRIPOS>ATOM
      1 C         141.6651  140.2693  160.0751 C.ar    1  UNL1        0.0192
      2 C         140.2117  140.5044  160.3626 C.ar    1  UNL1        0.0013
      3 C         139.8059  141.3412  161.5394 C.ar    1  UNL1       -0.0029
      4 C         140.8533  141.9429  162.4288 C.ar    1  UNL1       -0.0061
      5 C         142.3066  141.7078  162.1412 C.ar    1  UNL1       -0.0029
      6 C         142.7125  140.8710  160.9644 C.ar    1  UNL1        0.0013
      7 C         143.4023  134.8253  156.8977 C.ar    1  UNL1        0.1335
      8 C         143.5483  135.4552  155.5443 C.ar    1  UNL1        0.0360
      9 C         143.2885  136.9219  155.3677 C.ar    1  UNL1        0.0251
     10 C         142.8827  137.7587  156.5445 C.ar    1  UNL1        0.1171
     11 N         142.6229  139.2255  156.3678 N.ar    1  UNL1       -0.2407
     12 C         142.2170  140.0624  157.5447 C.ar    1  UNL1        0.0989
     13 C         142.0709  139.4324  158.8982 C.ar    1  UNL1        0.1005
     14 N         142.3307  137.9657  159.0748 N.ar    1  UNL1       -0.2237
     15 C         142.7366  137.1289  157.8980 C.ar    1  UNL1        0.1814
     16 N         142.9964  135.6622  158.0746 N.ar    1  UNL1       -0.2104
     17 C         144.4414  128.9584  157.6043 C.3     1  UNL1        0.0897
     18 N         144.1816  130.4251  157.4277 N.3     1  UNL1       -0.2686
     19 C         145.1163  131.4304  158.0324 C.3     1  UNL1        0.0939
     20 C         144.8565  132.8972  157.8557 C.3     1  UNL1        0.1095
     21 N         143.6621  133.3586  157.0744 N.pl3   1  UNL1       -0.2903
     22 C         142.7274  132.3532  156.4697 C.3     1  UNL1        0.1095
     23 C         142.9872  130.8865  156.6463 C.3     1  UNL1        0.0939
     24 C         141.9572  141.5291  157.3681 C.ar    1  UNL1        0.0191
     25 C         140.5933  142.0060  156.9652 C.ar    1  UNL1        0.0015
     26 C         140.3335  143.4727  156.7886 C.ar    1  UNL1        0.0000
     27 C         141.4375  144.4625  157.0149 C.ar    1  UNL1        0.0000
     28 C         142.8014  143.9857  157.4177 C.ar    1  UNL1        0.0000
     29 C         143.0613  142.5189  157.5944 C.ar    1  UNL1        0.0015
     30 C         140.4475  142.7798  163.6056 C.3     1  UNL1        0.0991
     31 N         140.1786  142.1302  164.9307 N.3     1  UNL1       -0.2689
     32 C         140.7901  142.6928  166.1795 C.3     1  UNL1        0.0728
     33 C         140.5212  142.0432  167.5047 C.3     1  UNL1        0.0249
     34 C         139.6409  140.8311  167.5809 C.3     1  UNL1        0.0613
     35 C         139.0294  140.2685  166.3319 C.3     1  UNL1        0.0249
     36 C         139.2983  140.9181  165.0069 C.3     1  UNL1        0.0728
     37 C         139.3720  140.1815  168.9059 C.ar    1  UNL1        0.1397
     38 N         140.3706  139.9770  170.0064 N.ar    1  UNL1       -0.1335
     39 N         139.6731  139.2915  171.1437 N.ar    1  UNL1       -0.1261
     40 C         138.2434  139.0723  170.7461 C.ar    1  UNL1        0.1990
     41 N         138.0574  139.6224  169.3631 N.ar    1  UNL1       -0.3221
     42 H         137.2195  139.6174  168.8462 H       1  UNL1        0.1687
     43 C         137.1855  138.4180  171.5844 C.ar    1  UNL1        0.1988
     44 N         137.4639  137.1039  172.2520 N.ar    1  UNL1       -0.2224
     45 C         136.4060  136.4496  173.0903 C.ar    1  UNL1        0.1023
     46 C         135.0698  137.1093  173.2611 C.ar    1  UNL1        0.0414
     47 C         134.7914  138.4235  172.5934 C.ar    1  UNL1        0.1023
     48 N         135.8493  139.0778  171.7552 N.ar    1  UNL1       -0.2224
@<TRIPOS>BOND
     1    17    18    1
     2    18    19    1
     3    19    20    1
     4    20    21    1
     5    21     7    1
     6     7     8   ar
     7     8     9   ar
     8     9    10   ar
     9    10    11   ar
    10    11    12   ar
    11    12    24    1
    12    24    25   ar
    13    25    26   ar
    14    26    27   ar
    15    27    28   ar
    16    28    29   ar
    17    12    13   ar
    18    13     1    1
    19     1     2   ar
    20     2     3   ar
    21     3     4   ar
    22     4    30    1
    23    30    31    1
    24    31    32    1
    25    32    33    1
    26    33    34    1
    27    34    37    1
    28    37    38   ar
    29    38    39   ar
    30    39    40   ar
    31    40    43    1
    32    43    44   ar
    33    44    45   ar
    34    45    46   ar
    35    46    47   ar
    36    47    48   ar
    37    40    41   ar
    38    34    35    1
    39    35    36    1
    40     4     5   ar
    41     5     6   ar
    42    13    14   ar
    43    14    15   ar
    44    15    16   ar
    45    21    22    1
    46    22    23    1
    47    23    18    1
    48    16     7   ar
    49    15    10   ar
    50    29    24   ar
    51     6     1   ar
    52    36    31    1
    53    41    37   ar
    54    48    43   ar
    55    41    42    1
@<TRIPOS>MOLECULE
*****
 48 55 0 0 0
SMALL
GASTEIGER

@<TRIPOS>ATOM
      1 C         139.0944  142.6923  156.9578 C.ar    1  UNL1        0.0192
      2 C         139.7770  142.4532  158.2720 C.ar    1  UNL1        0.0013
      3 C         139.1982  141.4748  159.2506 C.ar    1  UNL1       -0.0029
      4 C         137.9369  140.7355  158.9151 C.ar    1  UNL1       -0.0061
      5 C         137.2543  140.9746  157.6010 C.ar    1  UNL1       -0.0029
      6 C         137.8331  141.9530  156.6224 C.ar    1  UNL1        0.0013
      7 C         139.8946  148.4777  154.0187 C.ar    1  UNL1        0.1335
      8 C         140.9413  148.0310  153.0416 C.ar    1  UNL1        0.0360
      9 C         141.4093  146.6060  153.0432 C.ar    1  UNL1        0.0251
     10 C         140.8306  145.6275  154.0218 C.ar    1  UNL1        0.1171
     11 N         141.2986  144.2024  154.0234 N.ar    1  UNL1       -0.2407
     12 C         140.7199  143.2240  155.0020 C.ar    1  UNL1        0.0989
     13 C         139.6731  143.6707  155.9792 C.ar    1  UNL1        0.1005
     14 N         139.2051  145.0958  155.9776 N.ar    1  UNL1       -0.2237
     15 C         139.7838  146.0742  154.9989 C.ar    1  UNL1        0.1814
     16 N         139.3158  147.4993  154.9974 N.ar    1  UNL1       -0.2104
     17 C         138.0224  154.1782  154.0126 C.3     1  UNL1        0.0897
     18 N         138.4904  152.7531  154.0141 N.3     1  UNL1       -0.2686
     19 C         138.4646  151.9566  155.2849 C.3     1  UNL1        0.0939
     20 C         138.9327  150.5315  155.2864 C.3     1  UNL1        0.1095
     21 N         139.4265  149.9029  154.0172 N.pl3   1  UNL1       -0.2903
     22 C         139.4523  150.6994  152.7464 C.3     1  UNL1        0.1095
     23 C         138.9843  152.1245  152.7448 C.3     1  UNL1        0.0939
     24 C         141.1879  141.7989  155.0036 C.ar    1  UNL1        0.0191
     25 C         140.4303  140.7598  154.2313 C.ar    1  UNL1        0.0015
     26 C         140.8983  139.3347  154.2328 C.ar    1  UNL1        0.0000
     27 C         142.1239  138.9486  155.0067 C.ar    1  UNL1        0.0000
     28 C         142.8815  139.9876  155.7790 C.ar    1  UNL1        0.0000
     29 C         142.4135  141.4128  155.7774 C.ar    1  UNL1        0.0015
     30 C         137.3581  139.7571  159.8938 C.3     1  UNL1        0.0991
     31 N         137.7548  139.8184  161.3392 N.3     1  UNL1       -0.2689
     32 C         137.4577  141.0468  162.1469 C.3     1  UNL1        0.0728
     33 C         137.8544  141.1081  163.5923 C.3     1  UNL1        0.0249
     34 C         138.5481  139.9409  164.2298 C.3     1  UNL1        0.0613
     35 C         138.8451  138.7124  163.4219 C.3     1  UNL1        0.0249
     36 C         138.4485  138.6511  161.9766 C.3     1  UNL1        0.0728
     37 C         138.9447  140.0021  165.6751 C.ar    1  UNL1        0.1397
     38 N         138.3332  139.2087  166.7916 N.ar    1  UNL1       -0.1335
     39 N         139.0331  139.5837  168.0642 N.ar    1  UNL1       -0.1261
     40 C         140.0771  140.6090  167.7342 C.ar    1  UNL1        0.1990
     41 N         140.0225  140.8676  166.2576 N.ar    1  UNL1       -0.3221
     42 H         140.5937  141.4951  165.7585 H       1  UNL1        0.1687
     43 C         141.0117  141.2612  168.7095 C.ar    1  UNL1        0.1988
     44 N         140.5819  141.4774  170.1302 N.ar    1  UNL1       -0.2224
     45 C         141.5165  142.1296  171.1056 C.ar    1  UNL1        0.1023
     46 C         142.8808  142.5656  170.6602 C.ar    1  UNL1        0.0414
     47 C         143.3106  142.3494  169.2393 C.ar    1  UNL1        0.1023
     48 N         142.3760  141.6973  168.2641 N.ar    1  UNL1       -0.2224
@<TRIPOS>BOND
     1    17    18    1
     2    18    19    1
     3    19    20    1
     4    20    21    1
     5    21     7    1
     6     7     8   ar
     7     8     9   ar
     8     9    10   ar
     9    10    11   ar
    10    11    12   ar
    11    12    24    1
    12    24    25   ar
    13    25    26   ar
    14    26    27   ar
    15    27    28   ar
    16    28    29   ar
    17    12    13   ar
    18    13     1    1
    19     1     2   ar
    20     2     3   ar
    21     3     4   ar
    22     4    30    1
    23    30    31    1
    24    31    32    1
    25    32    33    1
    26    33    34    1
    27    34    37    1
    28    37    38   ar
    29    38    39   ar
    30    39    40   ar
    31    40    43    1
    32    43    44   ar
    33    44    45   ar
    34    45    46   ar
    35    46    47   ar
    36    47    48   ar
    37    40    41   ar
    38    34    35    1
    39    35    36    1
    40     4     5   ar
    41     5     6   ar
    42    13    14   ar
    43    14    15   ar
    44    15    16   ar
    45    21    22    1
    46    22    23    1
    47    23    18    1
    48    16     7   ar
    49    15    10   ar
    50    29    24   ar
    51     6     1   ar
    52    36    31    1
    53    41    37   ar
    54    48    43   ar
    55    41    42    1
@<TRIPOS>MOLECULE
*****
 48 55 0 0 0
SMALL
GASTEIGER

@<TRIPOS>ATOM
      1 C         142.2782  137.4509  156.9395 C.ar    1  UNL1        0.0192
      2 C         141.4014  137.9552  158.0472 C.ar    1  UNL1        0.0013
      3 C         141.6005  139.3391  158.5905 C.ar    1  UNL1       -0.0029
      4 C         142.6765  140.2188  158.0260 C.ar    1  UNL1       -0.0061
      5 C         143.5533  139.7145  156.9183 C.ar    1  UNL1       -0.0029
      6 C         143.3541  138.3306  156.3751 C.ar    1  UNL1        0.0013
      7 C         143.2457  131.0038  156.4419 C.ar    1  UNL1        0.1335
      8 C         142.2641  130.7676  155.3326 C.ar    1  UNL1        0.0360
      9 C         141.4816  131.9153  154.7665 C.ar    1  UNL1        0.0251
     10 C         141.6808  133.2992  155.3097 C.ar    1  UNL1        0.1171
     11 N         140.8983  134.4469  154.7436 N.ar    1  UNL1       -0.2407
     12 C         141.0974  135.8308  155.2869 C.ar    1  UNL1        0.0989
     13 C         142.0791  136.0670  156.3962 C.ar    1  UNL1        0.1005
     14 N         142.8615  134.9193  156.9623 N.ar    1  UNL1       -0.2237
     15 C         142.6624  133.5354  156.4191 C.ar    1  UNL1        0.1814
     16 N         143.4448  132.3877  156.9851 N.ar    1  UNL1       -0.2104
     17 C         146.3756  126.4128  158.7063 C.3     1  UNL1        0.0897
     18 N         145.5931  127.5605  158.1402 N.3     1  UNL1       -0.2686
     19 C         145.2303  128.7244  159.0141 C.3     1  UNL1        0.0939
     20 C         144.4478  129.8721  158.4480 C.3     1  UNL1        0.1095
     21 N         144.0282  129.8560  157.0080 N.pl3   1  UNL1       -0.2903
     22 C         144.3911  128.6922  156.1341 C.3     1  UNL1        0.1095
     23 C         145.1735  127.5444  156.7001 C.3     1  UNL1        0.0939
     24 C         140.3150  136.9786  154.7208 C.ar    1  UNL1        0.0191
     25 C         138.9366  137.2724  155.2345 C.ar    1  UNL1        0.0015
     26 C         138.1541  138.4202  154.6684 C.ar    1  UNL1        0.0000
     27 C         138.7500  139.2740  153.5887 C.ar    1  UNL1        0.0000
     28 C         140.1283  138.9802  153.0750 C.ar    1  UNL1        0.0000
     29 C         140.9108  137.8324  153.6411 C.ar    1  UNL1        0.0015
     30 C         142.8757  141.6027  158.5692 C.3     1  UNL1        0.0991
     31 N         143.0341  141.8131  160.0460 N.3     1  UNL1       -0.2689
     32 C         144.4046  141.9300  160.6442 C.3     1  UNL1        0.0728
     33 C         144.5630  142.1404  162.1209 C.3     1  UNL1        0.0249
     34 C         143.3508  142.2339  162.9994 C.3     1  UNL1        0.0613
     35 C         141.9802  142.1170  162.4012 C.3     1  UNL1        0.0249
     36 C         141.8218  141.9066  160.9245 C.3     1  UNL1        0.0728
     37 C         143.5092  142.4443  164.4761 C.ar    1  UNL1        0.1397
     38 N         144.3902  143.4661  165.1316 N.ar    1  UNL1       -0.1335
     39 N         144.2398  143.3232  166.6172 N.ar    1  UNL1       -0.1261
     40 C         143.2658  142.2130  166.8798 C.ar    1  UNL1        0.1990
     41 N         142.8143  141.6699  165.5565 N.ar    1  UNL1       -0.3221
     42 H         142.1742  140.9343  165.4209 H       1  UNL1        0.1687
     43 C         142.8214  141.7307  168.2288 C.ar    1  UNL1        0.1988
     44 N         142.6179  142.7107  169.3461 N.ar    1  UNL1       -0.2224
     45 C         142.1735  142.2284  170.6951 C.ar    1  UNL1        0.1023
     46 C         141.9326  140.7661  170.9269 C.ar    1  UNL1        0.0414
     47 C         142.1362  139.7861  169.8096 C.ar    1  UNL1        0.1023
     48 N         142.5806  140.2684  168.4607 N.ar    1  UNL1       -0.2224
@<TRIPOS>BOND
     1    17    18    1
     2    18    19    1
     3    19    20    1
     4    20    21    1
     5    21     7    1
     6     7     8   ar
     7     8     9   ar
     8     9    10   ar
     9    10    11   ar
    10    11    12   ar
    11    12    24    1
    12    24    25   ar
    13    25    26   ar
    14    26    27   ar
    15    27    28   ar
    16    28    29   ar
    17    12    13   ar
    18    13     1    1
    19     1     2   ar
    20     2     3   ar
    21     3     4   ar
    22     4    30    1
    23    30    31    1
    24    31    32    1
    25    32    33    1
    26    33    34    1
    27    34    37    1
    28    37    38   ar
    29    38    39   ar
    30    39    40   ar
    31    40    43    1
    32    43    44   ar
    33    44    45   ar
    34    45    46   ar
    35    46    47   ar
    36    47    48   ar
    37    40    41   ar
    38    34    35    1
    39    35    36    1
    40     4     5   ar
    41     5     6   ar
    42    13    14   ar
    43    14    15   ar
    44    15    16   ar
    45    21    22    1
    46    22    23    1
    47    23    18    1
    48    16     7   ar
    49    15    10   ar
    50    29    24   ar
    51     6     1   ar
    52    36    31    1
    53    41    37   ar
    54    48    43   ar
    55    41    42    1
@<TRIPOS>MOLECULE
*****
 48 55 0 0 0
SMALL
GASTEIGER

@<TRIPOS>ATOM
      1 C         140.2304  143.1646  160.6994 C.ar    1  UNL1        0.0192
      2 C         141.3322  143.3915  161.6917 C.ar    1  UNL1        0.0013
      3 C         141.1447  142.9916  163.1252 C.ar    1  UNL1       -0.0029
      4 C         139.8553  142.3648  163.5664 C.ar    1  UNL1       -0.0061
      5 C         138.7535  142.1380  162.5742 C.ar    1  UNL1       -0.0029
      6 C         138.9410  142.5378  161.1407 C.ar    1  UNL1        0.0013
      7 C         140.0158  147.1173  155.4956 C.ar    1  UNL1        0.1335
      8 C         140.5919  146.1406  154.5137 C.ar    1  UNL1        0.0360
      9 C         140.9805  144.7640  154.9654 C.ar    1  UNL1        0.0251
     10 C         140.7930  144.3641  156.3989 C.ar    1  UNL1        0.1171
     11 N         141.1816  142.9875  156.8505 N.ar    1  UNL1       -0.2407
     12 C         140.9941  142.5876  158.2840 C.ar    1  UNL1        0.0989
     13 C         140.4179  143.5644  159.2659 C.ar    1  UNL1        0.1005
     14 N         140.0293  144.9410  158.8143 N.ar    1  UNL1       -0.2237
     15 C         140.2169  145.3408  157.3808 C.ar    1  UNL1        0.1814
     16 N         139.8283  146.7174  156.9291 N.ar    1  UNL1       -0.2104
     17 C         138.4613  152.6237  153.6892 C.3     1  UNL1        0.0897
     18 N         138.8500  151.2471  154.1408 N.3     1  UNL1       -0.2686
     19 C         139.6286  150.3495  153.2254 C.3     1  UNL1        0.0939
     20 C         140.0173  148.9728  153.6771 C.3     1  UNL1        0.1095
     21 N         139.6272  148.4939  155.0440 N.pl3   1  UNL1       -0.2903
     22 C         138.8485  149.3916  155.9593 C.3     1  UNL1        0.1095
     23 C         138.4599  150.7682  155.5078 C.3     1  UNL1        0.0939
     24 C         141.3827  141.2111  158.7357 C.ar    1  UNL1        0.0191
     25 C         142.7804  140.9440  159.2101 C.ar    1  UNL1        0.0015
     26 C         143.1690  139.5675  159.6617 C.ar    1  UNL1        0.0000
     27 C         142.1599  138.4579  159.6390 C.ar    1  UNL1        0.0000
     28 C         140.7622  138.7249  159.1647 C.ar    1  UNL1        0.0000
     29 C         140.3735  140.1015  158.7130 C.ar    1  UNL1        0.0015
     30 C         139.6677  141.9650  164.9999 C.3     1  UNL1        0.0991
     31 N         140.6237  141.0034  165.6416 N.3     1  UNL1       -0.2689
     32 C         140.8589  139.6561  165.0256 C.3     1  UNL1        0.0728
     33 C         141.8148  138.6946  165.6672 C.3     1  UNL1        0.0249
     34 C         142.5356  139.0804  166.9248 C.3     1  UNL1        0.0613
     35 C         142.3004  140.4277  167.5409 C.3     1  UNL1        0.0249
     36 C         141.3445  141.3892  166.8992 C.3     1  UNL1        0.0728
     37 C         143.4915  138.1189  167.5665 C.ar    1  UNL1        0.1397
     38 N         144.4599  137.2267  166.8480 N.ar    1  UNL1       -0.1335
     39 N         145.2138  136.4372  167.8767 N.ar    1  UNL1       -0.1261
     40 C         144.7113  136.8415  169.2310 C.ar    1  UNL1        0.1990
     41 N         143.6469  137.8808  169.0393 N.ar    1  UNL1       -0.3221
     42 H         143.1394  138.3282  169.7545 H       1  UNL1        0.1687
     43 C         145.1893  136.3012  170.5462 C.ar    1  UNL1        0.1988
     44 N         146.5982  136.5553  170.9939 N.ar    1  UNL1       -0.2224
     45 C         147.0763  136.0151  172.3091 C.ar    1  UNL1        0.1023
     46 C         146.1454  135.2208  173.1766 C.ar    1  UNL1        0.0414
     47 C         144.7364  134.9667  172.7288 C.ar    1  UNL1        0.1023
     48 N         144.2585  135.5069  171.4137 N.ar    1  UNL1       -0.2224
@<TRIPOS>BOND
     1    17    18    1
     2    18    19    1
     3    19    20    1
     4    20    21    1
     5    21     7    1
     6     7     8   ar
     7     8     9   ar
     8     9    10   ar
     9    10    11   ar
    10    11    12   ar
    11    12    24    1
    12    24    25   ar
    13    25    26   ar
    14    26    27   ar
    15    27    28   ar
    16    28    29   ar
    17    12    13   ar
    18    13     1    1
    19     1     2   ar
    20     2     3   ar
    21     3     4   ar
    22     4    30    1
    23    30    31    1
    24    31    32    1
    25    32    33    1
    26    33    34    1
    27    34    37    1
    28    37    38   ar
    29    38    39   ar
    30    39    40   ar
    31    40    43    1
    32    43    44   ar
    33    44    45   ar
    34    45    46   ar
    35    46    47   ar
    36    47    48   ar
    37    40    41   ar
    38    34    35    1
    39    35    36    1
    40     4     5   ar
    41     5     6   ar
    42    13    14   ar
    43    14    15   ar
    44    15    16   ar
    45    21    22    1
    46    22    23    1
    47    23    18    1
    48    16     7   ar
    49    15    10   ar
    50    29    24   ar
    51     6     1   ar
    52    36    31    1
    53    41    37   ar
    54    48    43   ar
    55    41    42    1
@<TRIPOS>MOLECULE
*****
 48 55 0 0 0
SMALL
GASTEIGER

@<TRIPOS>ATOM
      1 C         141.5305  142.1389  156.5625 C.ar    1  UNL1        0.0192
      2 C         141.4123  142.4328  158.0287 C.ar    1  UNL1        0.0013
      3 C         140.3178  141.7987  158.8348 C.ar    1  UNL1       -0.0029
      4 C         139.3413  140.8708  158.1747 C.ar    1  UNL1       -0.0061
      5 C         139.4595  140.5770  156.7086 C.ar    1  UNL1       -0.0029
      6 C         140.5541  141.2110  155.9024 C.ar    1  UNL1        0.0013
      7 C         147.4154  142.5995  153.7509 C.ar    1  UNL1        0.1335
      8 C         147.2094  143.9544  153.1413 C.ar    1  UNL1        0.0360
      9 C         145.9087  144.6753  153.3379 C.ar    1  UNL1        0.0251
     10 C         144.8142  144.0412  154.1440 C.ar    1  UNL1        0.1171
     11 N         143.5135  144.7621  154.3406 N.ar    1  UNL1       -0.2407
     12 C         142.4189  144.1280  155.1467 C.ar    1  UNL1        0.0989
     13 C         142.6250  142.7730  155.7563 C.ar    1  UNL1        0.1005
     14 N         143.9257  142.0522  155.5598 N.ar    1  UNL1       -0.2237
     15 C         145.0202  142.6863  154.7536 C.ar    1  UNL1        0.1814
     16 N         146.3209  141.9654  154.5571 N.ar    1  UNL1       -0.2104
     17 C         152.6181  139.7159  152.9649 C.3     1  UNL1        0.0897
     18 N         151.3175  140.4368  153.1614 N.3     1  UNL1       -0.2686
     19 C         150.3972  140.6543  151.9970 C.3     1  UNL1        0.0939
     20 C         149.0965  141.3753  152.1935 C.3     1  UNL1        0.1095
     21 N         148.7161  141.8786  153.5544 N.pl3   1  UNL1       -0.2903
     22 C         149.6364  141.6610  154.7188 C.3     1  UNL1        0.1095
     23 C         150.9370  140.9401  154.5223 C.3     1  UNL1        0.0939
     24 C         141.1183  144.8489  155.3433 C.ar    1  UNL1        0.0191
     25 C         139.9434  144.5286  154.4674 C.ar    1  UNL1        0.0015
     26 C         138.6428  145.2494  154.6639 C.ar    1  UNL1        0.0000
     27 C         138.5169  146.2906  155.7363 C.ar    1  UNL1        0.0000
     28 C         139.6917  146.6109  156.6122 C.ar    1  UNL1        0.0000
     29 C         140.9924  145.8901  156.4157 C.ar    1  UNL1        0.0015
     30 C         138.2468  140.2367  158.9809 C.3     1  UNL1        0.0991
     31 N         138.3821  140.1227  160.4704 N.3     1  UNL1       -0.2689
     32 C         139.1861  139.0058  161.0672 C.3     1  UNL1        0.0728
     33 C         139.3215  138.8918  162.5568 C.3     1  UNL1        0.0249
     34 C         138.6527  139.8947  163.4495 C.3     1  UNL1        0.0613
     35 C         137.8486  141.0115  162.8527 C.3     1  UNL1        0.0249
     36 C         137.7133  141.1255  161.3632 C.3     1  UNL1        0.0728
     37 C         138.7880  139.7807  164.9390 C.ar    1  UNL1        0.1397
     38 N         138.0672  138.8014  165.8175 N.ar    1  UNL1       -0.1335
     39 N         138.5015  139.0415  167.2330 N.ar    1  UNL1       -0.1261
     40 C         139.4907  140.1691  167.2294 C.ar    1  UNL1        0.1990
     41 N         139.6677  140.6260  165.8117 N.ar    1  UNL1       -0.3221
     42 H         140.2577  141.3530  165.5073 H       1  UNL1        0.1687
     43 C         140.1816  140.7398  168.4324 C.ar    1  UNL1        0.1988
     44 N         140.6777  142.1552  168.4112 N.ar    1  UNL1       -0.2224
     45 C         141.3686  142.7258  169.6142 C.ar    1  UNL1        0.1023
     46 C         141.5633  141.8810  170.8383 C.ar    1  UNL1        0.0414
     47 C         141.0672  140.4655  170.8594 C.ar    1  UNL1        0.1023
     48 N         140.3763  139.8950  169.6564 N.ar    1  UNL1       -0.2224
@<TRIPOS>BOND
     1    17    18    1
     2    18    19    1
     3    19    20    1
     4    20    21    1
     5    21     7    1
     6     7     8   ar
     7     8     9   ar
     8     9    10   ar
     9    10    11   ar
    10    11    12   ar
    11    12    24    1
    12    24    25   ar
    13    25    26   ar
    14    26    27   ar
    15    27    28   ar
    16    28    29   ar
    17    12    13   ar
    18    13     1    1
    19     1     2   ar
    20     2     3   ar
    21     3     4   ar
    22     4    30    1
    23    30    31    1
    24    31    32    1
    25    32    33    1
    26    33    34    1
    27    34    37    1
    28    37    38   ar
    29    38    39   ar
    30    39    40   ar
    31    40    43    1
    32    43    44   ar
    33    44    45   ar
    34    45    46   ar
    35    46    47   ar
    36    47    48   ar
    37    40    41   ar
    38    34    35    1
    39    35    36    1
    40     4     5   ar
    41     5     6   ar
    42    13    14   ar
    43    14    15   ar
    44    15    16   ar
    45    21    22    1
    46    22    23    1
    47    23    18    1
    48    16     7   ar
    49    15    10   ar
    50    29    24   ar
    51     6     1   ar
    52    36    31    1
    53    41    37   ar
    54    48    43   ar
    55    41    42    1
