@<TRIPOS>MOLECULE
*****
 38 43 0 0 0
SMALL
GASTEIGER

@<TRIPOS>ATOM
      1 C         140.8048  145.4467  159.5067 C.3     1  UNL1        0.0294
      2 C         140.1686  145.8663  160.7988 C.3     1  UNL1        0.0730
      3 C         142.2903  141.1562  168.9997 C.ar    1  UNL1        0.2057
      4 N         140.9461  141.7026  168.6191 N.ar    1  UNL1       -0.2121
      5 C         141.0735  142.3508  167.2725 C.ar    1  UNL1        0.1179
      6 C         140.0777  143.0550  166.3993 C.ar    1  UNL1        0.0178
      7 C         140.5048  143.6134  165.0742 C.ar    1  UNL1       -0.0233
      8 C         141.9276  143.4676  164.6224 C.ar    1  UNL1       -0.0256
      9 C         142.9235  142.7635  165.4956 C.ar    1  UNL1        0.0101
     10 C         144.3464  142.6178  165.0437 C.3     1  UNL1        0.0339
     11 C         142.4964  142.2051  166.8207 C.ar    1  UNL1        0.1600
     12 O         143.2484  141.4668  167.8881 O.2     1  UNL1       -0.4387
     13 C         142.5581  143.9467  163.3484 C.3     1  UNL1        0.0431
     14 C         141.9213  144.6898  162.2115 C.3     1  UNL1        0.0768
     15 N         140.4970  145.1373  162.0680 N.3     1  UNL1       -0.2720
     16 C         139.3574  144.9524  163.0257 C.3     1  UNL1        0.0768
     17 C         139.3609  144.2741  164.3636 C.3     1  UNL1        0.0434
     18 C         142.7000  138.9295  170.2740 C.3     1  UNL1        0.0102
     19 C         142.6186  140.4273  170.2689 C.3     1  UNL1        0.0853
     20 C         139.9846  144.7602  158.4550 C.3     1  UNL1        0.0666
     21 S         139.9396  143.2620  158.3985 S.3     1  UNL1       -0.0756
     22 C         140.3927  142.4530  159.5776 C.ar    1  UNL1        0.1932
     23 N         141.7611  141.8709  159.7740 N.ar    1  UNL1       -0.1221
     24 N         141.7711  141.1422  161.0851 N.ar    1  UNL1       -0.1282
     25 C         140.4088  141.2740  161.6990 C.ar    1  UNL1        0.1669
     26 N         139.5569  142.0842  160.7673 N.ar    1  UNL1       -0.2884
     27 C         138.1213  142.4595  160.9868 C.3     1  UNL1        0.1340
     28 C         139.9746  140.6970  163.0137 C.ar    1  UNL1        0.0374
     29 C         138.5417  140.8054  163.4438 C.ar    1  UNL1        0.0031
     30 C         138.1075  140.2284  164.7585 C.ar    1  UNL1        0.0016
     31 C         139.1062  139.5430  165.6433 C.ar    1  UNL1        0.0191
     32 C         140.5391  139.4347  165.2132 C.ar    1  UNL1        0.0810
     33 N         141.5379  138.7493  166.0979 N.ar    1  UNL1       -0.2497
     34 C         142.9709  138.6410  165.6680 C.ar    1  UNL1        0.0593
     35 C         143.9697  137.9556  166.5527 C.3     1  UNL1        0.0521
     36 C         143.4050  139.2180  164.3532 C.ar    1  UNL1        0.0147
     37 C         142.4063  139.9033  163.4684 C.ar    1  UNL1        0.0028
     38 C         140.9733  140.0117  163.8985 C.ar    1  UNL1        0.0206
@<TRIPOS>BOND
     1    18    19    1
     2    19     3    1
     3     3     4   ar
     4     4     5   ar
     5     5     6   ar
     6     6     7   ar
     7     7     8   ar
     8     8     9   ar
     9     9    10    1
    10     9    11   ar
    11    11    12   ar
    12     8    13    1
    13    13    14    1
    14    14    15    1
    15    15     2    1
    16     2     1    1
    17     1    20    1
    18    20    21    1
    19    21    22    1
    20    22    23   ar
    21    23    24   ar
    22    24    25   ar
    23    25    28    1
    24    28    29   ar
    25    29    30   ar
    26    30    31   ar
    27    31    32   ar
    28    32    33   ar
    29    33    34   ar
    30    34    35    1
    31    34    36   ar
    32    36    37   ar
    33    37    38   ar
    34    25    26   ar
    35    26    27    1
    36    15    16    1
    37    16    17    1
    38    12     3   ar
    39    26    22   ar
    40    11     5   ar
    41    38    28   ar
    42    17     7    1
    43    38    32   ar
@<TRIPOS>MOLECULE
*****
 38 43 0 0 0
SMALL
GASTEIGER

@<TRIPOS>ATOM
      1 C         141.2468  144.8860  158.9046 C.3     1  UNL1        0.0294
      2 C         140.8138  145.5182  160.1943 C.3     1  UNL1        0.0730
      3 C         141.2178  140.4552  168.4492 C.ar    1  UNL1        0.2057
      4 N         140.2957  141.6032  168.1631 N.ar    1  UNL1       -0.2121
      5 C         140.5744  142.0858  166.7706 C.ar    1  UNL1        0.1179
      6 C         139.9730  143.1892  165.9515 C.ar    1  UNL1        0.0178
      7 C         140.4661  143.4429  164.5577 C.ar    1  UNL1       -0.0233
      8 C         141.5605  142.5933  163.9831 C.ar    1  UNL1       -0.0256
      9 C         142.1619  141.4899  164.8021 C.ar    1  UNL1        0.0101
     10 C         143.2564  140.6403  164.2274 C.3     1  UNL1        0.0339
     11 C         141.6689  141.2361  166.1959 C.ar    1  UNL1        0.1600
     12 O         142.0665  140.2284  167.2333 O.2     1  UNL1       -0.4387
     13 C         142.1941  142.6761  162.6259 C.3     1  UNL1        0.0431
     14 C         141.8895  143.6292  161.5083 C.3     1  UNL1        0.0768
     15 N         140.8764  144.7346  161.4718 N.3     1  UNL1       -0.2720
     16 C         139.9174  145.1602  162.5439 C.3     1  UNL1        0.0768
     17 C         139.7348  144.5853  163.9173 C.3     1  UNL1        0.0434
     18 C         142.5016  138.8635  170.0519 C.3     1  UNL1        0.0102
     19 C         141.2804  139.6716  169.7267 C.3     1  UNL1        0.0853
     20 C         140.2452  144.6437  157.8146 C.3     1  UNL1        0.0666
     21 S         139.4540  143.3696  157.7929 S.3     1  UNL1       -0.0756
     22 C         139.2644  142.5828  159.0558 C.ar    1  UNL1        0.1932
     23 N         138.1966  142.8104  160.0844 N.ar    1  UNL1       -0.1221
     24 N         138.3816  141.7985  161.1762 N.ar    1  UNL1       -0.1282
     25 C         139.5637  140.9456  160.8223 C.ar    1  UNL1        0.1669
     26 N         140.1093  141.4304  159.5118 N.ar    1  UNL1       -0.2884
     27 C         141.2921  140.8623  158.7850 C.3     1  UNL1        0.1340
     28 C         140.1051  139.8078  161.6360 C.ar    1  UNL1        0.0374
     29 C         141.1650  138.9140  161.0635 C.ar    1  UNL1        0.0031
     30 C         141.7064  137.7761  161.8772 C.ar    1  UNL1        0.0016
     31 C         141.1880  137.5320  163.2634 C.ar    1  UNL1        0.0191
     32 C         140.1281  138.4258  163.8359 C.ar    1  UNL1        0.0810
     33 N         139.6097  138.1818  165.2222 N.ar    1  UNL1       -0.2497
     34 C         138.5498  139.0756  165.7948 C.ar    1  UNL1        0.0593
     35 C         138.0313  138.8316  167.1810 C.3     1  UNL1        0.0521
     36 C         138.0084  140.2135  164.9810 C.ar    1  UNL1        0.0147
     37 C         138.5268  140.4575  163.5947 C.ar    1  UNL1        0.0028
     38 C         139.5867  139.5637  163.0222 C.ar    1  UNL1        0.0206
@<TRIPOS>BOND
     1    18    19    1
     2    19     3    1
     3     3     4   ar
     4     4     5   ar
     5     5     6   ar
     6     6     7   ar
     7     7     8   ar
     8     8     9   ar
     9     9    10    1
    10     9    11   ar
    11    11    12   ar
    12     8    13    1
    13    13    14    1
    14    14    15    1
    15    15     2    1
    16     2     1    1
    17     1    20    1
    18    20    21    1
    19    21    22    1
    20    22    23   ar
    21    23    24   ar
    22    24    25   ar
    23    25    28    1
    24    28    29   ar
    25    29    30   ar
    26    30    31   ar
    27    31    32   ar
    28    32    33   ar
    29    33    34   ar
    30    34    35    1
    31    34    36   ar
    32    36    37   ar
    33    37    38   ar
    34    25    26   ar
    35    26    27    1
    36    15    16    1
    37    16    17    1
    38    12     3   ar
    39    26    22   ar
    40    11     5   ar
    41    38    28   ar
    42    17     7    1
    43    38    32   ar
@<TRIPOS>MOLECULE
*****
 38 43 0 0 0
SMALL
GASTEIGER

@<TRIPOS>ATOM
      1 C         140.0176  139.9835  157.8217 C.3     1  UNL1        0.0294
      2 C         139.3898  138.9625  158.7237 C.3     1  UNL1        0.0730
      3 C         139.3246  140.3560  168.3151 C.ar    1  UNL1        0.2057
      4 N         138.9656  139.0836  167.6065 N.ar    1  UNL1       -0.2121
      5 C         139.1146  139.3161  166.1322 C.ar    1  UNL1        0.1179
      6 C         138.8977  138.4213  164.9480 C.ar    1  UNL1        0.0178
      7 C         139.1321  138.9426  163.5611 C.ar    1  UNL1       -0.0233
      8 C         139.5832  140.3586  163.3585 C.ar    1  UNL1       -0.0256
      9 C         139.8000  141.2535  164.5426 C.ar    1  UNL1        0.0101
     10 C         140.2512  142.6696  164.3399 C.3     1  UNL1        0.0339
     11 C         139.5657  140.7323  165.9295 C.ar    1  UNL1        0.1600
     12 O         139.6955  141.3749  167.2786 O.2     1  UNL1       -0.4387
     13 C         139.8724  141.0730  162.0716 C.3     1  UNL1        0.0431
     14 C         139.7818  140.5476  160.6695 C.3     1  UNL1        0.0768
     15 N         139.3797  139.1782  160.2081 N.3     1  UNL1       -0.2720
     16 C         138.9689  137.9959  161.0347 C.3     1  UNL1        0.0768
     17 C         138.8586  137.8910  162.5270 C.3     1  UNL1        0.0434
     18 C         140.5595  140.3310  170.6008 C.3     1  UNL1        0.0102
     19 C         139.3145  140.5717  169.7995 C.3     1  UNL1        0.0853
     20 C         141.1149  139.5803  156.8817 C.3     1  UNL1        0.0666
     21 S         142.5255  140.0173  157.1441 S.3     1  UNL1       -0.0756
     22 C         143.0538  140.0435  158.5478 C.ar    1  UNL1        0.1932
     23 N         143.7428  138.9123  159.2518 N.ar    1  UNL1       -0.1221
     24 N         144.1006  139.3751  160.6330 N.ar    1  UNL1       -0.1282
     25 C         143.6327  140.7924  160.7826 C.ar    1  UNL1        0.1669
     26 N         142.9857  141.2055  159.4939 N.ar    1  UNL1       -0.2884
     27 C         142.3775  142.5453  159.2025 C.3     1  UNL1        0.1340
     28 C         143.7851  141.6466  162.0062 C.ar    1  UNL1        0.0374
     29 C         144.2066  143.0799  161.8725 C.ar    1  UNL1        0.0031
     30 C         144.3589  143.9341  163.0960 C.ar    1  UNL1        0.0016
     31 C         144.0898  143.3551  164.4533 C.ar    1  UNL1        0.0191
     32 C         143.6683  141.9217  164.5870 C.ar    1  UNL1        0.0810
     33 N         143.3992  141.3426  165.9442 N.ar    1  UNL1       -0.2497
     34 C         142.9777  139.9092  166.0780 C.ar    1  UNL1        0.0593
     35 C         142.7086  139.3301  167.4353 C.3     1  UNL1        0.0521
     36 C         142.8254  139.0550  164.8544 C.ar    1  UNL1        0.0147
     37 C         143.0945  139.6342  163.4971 C.ar    1  UNL1        0.0028
     38 C         143.5160  141.0675  163.3635 C.ar    1  UNL1        0.0206
@<TRIPOS>BOND
     1    18    19    1
     2    19     3    1
     3     3     4   ar
     4     4     5   ar
     5     5     6   ar
     6     6     7   ar
     7     7     8   ar
     8     8     9   ar
     9     9    10    1
    10     9    11   ar
    11    11    12   ar
    12     8    13    1
    13    13    14    1
    14    14    15    1
    15    15     2    1
    16     2     1    1
    17     1    20    1
    18    20    21    1
    19    21    22    1
    20    22    23   ar
    21    23    24   ar
    22    24    25   ar
    23    25    28    1
    24    28    29   ar
    25    29    30   ar
    26    30    31   ar
    27    31    32   ar
    28    32    33   ar
    29    33    34   ar
    30    34    35    1
    31    34    36   ar
    32    36    37   ar
    33    37    38   ar
    34    25    26   ar
    35    26    27    1
    36    15    16    1
    37    16    17    1
    38    12     3   ar
    39    26    22   ar
    40    11     5   ar
    41    38    28   ar
    42    17     7    1
    43    38    32   ar
@<TRIPOS>MOLECULE
*****
 38 43 0 0 0
SMALL
GASTEIGER

@<TRIPOS>ATOM
      1 C         140.0782  144.8438  159.2716 C.3     1  UNL1        0.0294
      2 C         141.1025  145.2200  160.3010 C.3     1  UNL1        0.0730
      3 C         141.6346  140.2972  168.6331 C.ar    1  UNL1        0.2057
      4 N         142.7156  141.1551  168.0453 N.ar    1  UNL1       -0.2121
      5 C         142.2059  141.7230  166.7539 C.ar    1  UNL1        0.1179
      6 C         142.8326  142.6362  165.7424 C.ar    1  UNL1        0.0178
      7 C         142.0632  143.0426  164.5204 C.ar    1  UNL1       -0.0233
      8 C         140.6673  142.5357  164.3102 C.ar    1  UNL1       -0.0256
      9 C         140.0405  141.6225  165.3217 C.ar    1  UNL1        0.0101
     10 C         138.6445  141.1157  165.1113 C.3     1  UNL1        0.0339
     11 C         140.8098  141.2161  166.5436 C.ar    1  UNL1        0.1600
     12 O         140.4568  140.3349  167.7050 O.2     1  UNL1       -0.4387
     13 C         139.7324  142.8153  163.1708 C.3     1  UNL1        0.0431
     14 C         139.9628  143.6709  161.9604 C.3     1  UNL1        0.0768
     15 N         141.1848  144.4581  161.5905 N.3     1  UNL1       -0.2720
     16 C         142.4783  144.5842  162.3395 C.3     1  UNL1        0.0768
     17 C         142.8693  143.9543  163.6434 C.3     1  UNL1        0.0434
     18 C         142.7321  138.4429  170.0848 C.3     1  UNL1        0.0102
     19 C         141.7170  139.5353  169.9226 C.3     1  UNL1        0.0853
     20 C         140.5150  144.3332  157.9306 C.3     1  UNL1        0.0666
     21 S         140.4818  142.8618  157.6411 S.3     1  UNL1       -0.0756
     22 C         140.8905  141.8800  158.6989 C.ar    1  UNL1        0.1932
     23 N         142.2903  141.4225  158.9837 N.ar    1  UNL1       -0.1221
     24 N         142.2361  140.4430  160.1185 N.ar    1  UNL1       -0.1282
     25 C         140.8027  140.2951  160.5349 C.ar    1  UNL1        0.1669
     26 N         139.9710  141.1832  159.6576 N.ar    1  UNL1       -0.2884
     27 C         138.4815  141.3459  159.7269 C.3     1  UNL1        0.1340
     28 C         140.2908  139.4138  161.6355 C.ar    1  UNL1        0.0374
     29 C         138.9074  138.8397  161.5545 C.ar    1  UNL1        0.0031
     30 C         138.3955  137.9584  162.6551 C.ar    1  UNL1        0.0016
     31 C         139.2669  137.6511  163.8366 C.ar    1  UNL1        0.0191
     32 C         140.6504  138.2252  163.9176 C.ar    1  UNL1        0.0810
     33 N         141.5219  137.9180  165.0991 N.ar    1  UNL1       -0.2497
     34 C         142.9054  138.4920  165.1801 C.ar    1  UNL1        0.0593
     35 C         143.7769  138.1848  166.3617 C.3     1  UNL1        0.0521
     36 C         143.4172  139.3733  164.0795 C.ar    1  UNL1        0.0147
     37 C         142.5457  139.6805  162.8980 C.ar    1  UNL1        0.0028
     38 C         141.1623  139.1065  162.8170 C.ar    1  UNL1        0.0206
@<TRIPOS>BOND
     1    18    19    1
     2    19     3    1
     3     3     4   ar
     4     4     5   ar
     5     5     6   ar
     6     6     7   ar
     7     7     8   ar
     8     8     9   ar
     9     9    10    1
    10     9    11   ar
    11    11    12   ar
    12     8    13    1
    13    13    14    1
    14    14    15    1
    15    15     2    1
    16     2     1    1
    17     1    20    1
    18    20    21    1
    19    21    22    1
    20    22    23   ar
    21    23    24   ar
    22    24    25   ar
    23    25    28    1
    24    28    29   ar
    25    29    30   ar
    26    30    31   ar
    27    31    32   ar
    28    32    33   ar
    29    33    34   ar
    30    34    35    1
    31    34    36   ar
    32    36    37   ar
    33    37    38   ar
    34    25    26   ar
    35    26    27    1
    36    15    16    1
    37    16    17    1
    38    12     3   ar
    39    26    22   ar
    40    11     5   ar
    41    38    28   ar
    42    17     7    1
    43    38    32   ar
@<TRIPOS>MOLECULE
*****
 38 43 0 0 0
SMALL
GASTEIGER

@<TRIPOS>ATOM
      1 C         140.1150  140.4887  168.9947 C.3     1  UNL1        0.0294
      2 C         139.4472  140.0148  167.7379 C.3     1  UNL1        0.0730
      3 C         140.6018  144.9524  159.4779 C.ar    1  UNL1        0.2057
      4 N         140.5627  145.5392  160.8579 N.ar    1  UNL1       -0.2121
      5 C         140.3676  144.4167  161.8335 C.ar    1  UNL1        0.1179
      6 C         140.2536  144.3953  163.3291 C.ar    1  UNL1        0.0178
      7 C         140.0581  143.0931  164.0477 C.ar    1  UNL1       -0.0233
      8 C         139.9765  141.8127  163.2708 C.ar    1  UNL1       -0.0256
      9 C         140.0905  141.8341  161.7753 C.ar    1  UNL1        0.0101
     10 C         140.0089  140.5536  160.9984 C.3     1  UNL1        0.0339
     11 C         140.2860  143.1362  161.0566 C.ar    1  UNL1        0.1600
     12 O         140.4308  143.4673  159.6008 O.2     1  UNL1       -0.4387
     13 C         139.7860  140.4168  163.7858 C.3     1  UNL1        0.0431
     14 C         139.6299  139.9567  165.2051 C.3     1  UNL1        0.0768
     15 N         139.6259  140.7789  166.4595 N.3     1  UNL1       -0.2720
     16 C         139.7769  142.2642  166.6049 C.3     1  UNL1        0.0768
     17 C         139.9692  143.2942  165.5315 C.3     1  UNL1        0.0434
     18 C         142.1297  145.7824  157.5475 C.3     1  UNL1        0.0102
     19 C         140.7805  145.7166  158.1996 C.3     1  UNL1        0.0853
     20 C         141.1217  139.6161  169.6840 C.3     1  UNL1        0.0666
     21 S         142.5123  139.4972  169.1345 S.3     1  UNL1       -0.0756
     22 C         142.7751  139.7943  167.6879 C.ar    1  UNL1        0.1932
     23 N         142.8489  138.7859  166.5800 N.ar    1  UNL1       -0.1221
     24 N         143.1296  139.5203  165.3026 N.ar    1  UNL1       -0.1282
     25 C         143.2294  140.9827  165.6211 C.ar    1  UNL1        0.1669
     26 N         143.0103  141.1521  167.0953 N.ar    1  UNL1       -0.2884
     27 C         143.0239  142.4511  167.8452 C.3     1  UNL1        0.1340
     28 C         143.5006  142.0827  164.6380 C.ar    1  UNL1        0.0374
     29 C         143.6700  143.4934  165.1188 C.ar    1  UNL1        0.0031
     30 C         143.9413  144.5934  164.1356 C.ar    1  UNL1        0.0016
     31 C         144.0430  144.2827  162.6717 C.ar    1  UNL1        0.0191
     32 C         143.8736  142.8720  162.1910 C.ar    1  UNL1        0.0810
     33 N         143.9753  142.5612  160.7270 N.ar    1  UNL1       -0.2497
     34 C         143.8059  141.1505  160.2462 C.ar    1  UNL1        0.0593
     35 C         143.9076  140.8397  158.7823 C.3     1  UNL1        0.0521
     36 C         143.5346  140.0505  161.2294 C.ar    1  UNL1        0.0147
     37 C         143.4329  140.3613  162.6933 C.ar    1  UNL1        0.0028
     38 C         143.6023  141.7720  163.1741 C.ar    1  UNL1        0.0206
@<TRIPOS>BOND
     1    18    19    1
     2    19     3    1
     3     3     4   ar
     4     4     5   ar
     5     5     6   ar
     6     6     7   ar
     7     7     8   ar
     8     8     9   ar
     9     9    10    1
    10     9    11   ar
    11    11    12   ar
    12     8    13    1
    13    13    14    1
    14    14    15    1
    15    15     2    1
    16     2     1    1
    17     1    20    1
    18    20    21    1
    19    21    22    1
    20    22    23   ar
    21    23    24   ar
    22    24    25   ar
    23    25    28    1
    24    28    29   ar
    25    29    30   ar
    26    30    31   ar
    27    31    32   ar
    28    32    33   ar
    29    33    34   ar
    30    34    35    1
    31    34    36   ar
    32    36    37   ar
    33    37    38   ar
    34    25    26   ar
    35    26    27    1
    36    15    16    1
    37    16    17    1
    38    12     3   ar
    39    26    22   ar
    40    11     5   ar
    41    38    28   ar
    42    17     7    1
    43    38    32   ar
@<TRIPOS>MOLECULE
*****
 38 43 0 0 0
SMALL
GASTEIGER

@<TRIPOS>ATOM
      1 C         142.5718  138.0809  159.2957 C.3     1  UNL1        0.0294
      2 C         143.7180  138.2529  160.2480 C.3     1  UNL1        0.0730
      3 C         142.1745  141.9557  169.0711 C.ar    1  UNL1        0.2057
      4 N         141.6217  140.6630  168.5484 N.ar    1  UNL1       -0.2121
      5 C         142.1137  140.4831  167.1429 C.ar    1  UNL1        0.1179
      6 C         141.8921  139.3960  166.1333 C.ar    1  UNL1        0.0178
      7 C         142.5275  139.4906  164.7777 C.ar    1  UNL1       -0.0233
      8 C         143.3842  140.6721  164.4318 C.ar    1  UNL1       -0.0256
      9 C         143.6058  141.7592  165.4413 C.ar    1  UNL1        0.0101
     10 C         144.4627  142.9408  165.0953 C.3     1  UNL1        0.0339
     11 C         142.9705  141.6647  166.7969 C.ar    1  UNL1        0.1600
     12 O         143.0081  142.5748  167.9886 O.2     1  UNL1       -0.4387
     13 C         144.1053  140.9608  163.1485 C.3     1  UNL1        0.0431
     14 C         144.1475  140.1391  161.8942 C.3     1  UNL1        0.0768
     15 N         143.4791  138.8260  161.6135 N.3     1  UNL1       -0.2720
     16 C         142.6035  138.0100  162.5177 C.3     1  UNL1        0.0768
     17 C         142.1800  138.3058  163.9259 C.3     1  UNL1        0.0434
     18 C         141.1329  141.7591  171.4431 C.3     1  UNL1        0.0102
     19 C         141.9357  142.5288  170.4366 C.3     1  UNL1        0.0853
     20 C         142.5948  138.7679  157.9625 C.3     1  UNL1        0.0666
     21 S         141.4241  139.5977  157.5261 S.3     1  UNL1       -0.0756
     22 C         140.2878  139.8481  158.4728 C.ar    1  UNL1        0.1932
     23 N         138.9201  139.2378  158.3895 N.ar    1  UNL1       -0.1221
     24 N         138.1067  139.7651  159.5342 N.ar    1  UNL1       -0.1282
     25 C         138.9717  140.7013  160.3249 C.ar    1  UNL1        0.1669
     26 N         140.3197  140.7526  159.6689 N.ar    1  UNL1       -0.2884
     27 C         141.4935  141.5657  160.1284 C.3     1  UNL1        0.1340
     28 C         138.5608  141.4542  161.5555 C.ar    1  UNL1        0.0374
     29 C         138.2522  142.9196  161.4702 C.ar    1  UNL1        0.0031
     30 C         137.8413  143.6724  162.7008 C.ar    1  UNL1        0.0016
     31 C         137.7391  142.9599  164.0168 C.ar    1  UNL1        0.0191
     32 C         138.0478  141.4945  164.1021 C.ar    1  UNL1        0.0810
     33 N         137.9456  140.7819  165.4180 N.ar    1  UNL1       -0.2497
     34 C         138.2543  139.3164  165.5034 C.ar    1  UNL1        0.0593
     35 C         138.1521  138.6038  166.8194 C.3     1  UNL1        0.0521
     36 C         138.6651  138.5636  164.2727 C.ar    1  UNL1        0.0147
     37 C         138.7673  139.2762  162.9568 C.ar    1  UNL1        0.0028
     38 C         138.4586  140.7416  162.8715 C.ar    1  UNL1        0.0206
@<TRIPOS>BOND
     1    18    19    1
     2    19     3    1
     3     3     4   ar
     4     4     5   ar
     5     5     6   ar
     6     6     7   ar
     7     7     8   ar
     8     8     9   ar
     9     9    10    1
    10     9    11   ar
    11    11    12   ar
    12     8    13    1
    13    13    14    1
    14    14    15    1
    15    15     2    1
    16     2     1    1
    17     1    20    1
    18    20    21    1
    19    21    22    1
    20    22    23   ar
    21    23    24   ar
    22    24    25   ar
    23    25    28    1
    24    28    29   ar
    25    29    30   ar
    26    30    31   ar
    27    31    32   ar
    28    32    33   ar
    29    33    34   ar
    30    34    35    1
    31    34    36   ar
    32    36    37   ar
    33    37    38   ar
    34    25    26   ar
    35    26    27    1
    36    15    16    1
    37    16    17    1
    38    12     3   ar
    39    26    22   ar
    40    11     5   ar
    41    38    28   ar
    42    17     7    1
    43    38    32   ar
@<TRIPOS>MOLECULE
*****
 38 43 0 0 0
SMALL
GASTEIGER

@<TRIPOS>ATOM
      1 C         139.3815  139.8821  158.1763 C.3     1  UNL1        0.0294
      2 C         139.2150  138.7856  159.1864 C.3     1  UNL1        0.0730
      3 C         139.6924  140.8047  168.6540 C.ar    1  UNL1        0.2057
      4 N         140.0470  141.7379  167.5344 N.ar    1  UNL1       -0.2121
      5 C         139.8247  141.0141  166.2396 C.ar    1  UNL1        0.1179
      6 C         140.0067  141.4339  164.8111 C.ar    1  UNL1        0.0178
      7 C         139.6967  140.4729  163.7017 C.ar    1  UNL1       -0.0233
      8 C         139.2048  139.0924  164.0210 C.ar    1  UNL1       -0.0256
      9 C         139.0228  138.6726  165.4495 C.ar    1  UNL1        0.0101
     10 C         138.5308  137.2920  165.7687 C.3     1  UNL1        0.0339
     11 C         139.3327  139.6335  166.5589 C.ar    1  UNL1        0.1600
     12 O         139.2510  139.5041  168.0510 O.2     1  UNL1       -0.4387
     13 C         138.8403  137.9872  163.0745 C.3     1  UNL1        0.0431
     14 C         138.8778  137.9898  161.5749 C.3     1  UNL1        0.0768
     15 N         139.2889  139.0981  160.6516 N.3     1  UNL1       -0.2720
     16 C         139.7642  140.4776  160.9997 C.3     1  UNL1        0.0768
     17 C         139.9457  141.0894  162.3572 C.3     1  UNL1        0.0434
     18 C         140.8080  140.4591  170.9748 C.3     1  UNL1        0.0102
     19 C         139.7663  141.1171  170.1193 C.3     1  UNL1        0.0853
     20 C         140.2095  139.6503  156.9472 C.3     1  UNL1        0.0666
     21 S         141.6438  140.0880  156.9156 S.3     1  UNL1       -0.0756
     22 C         142.4651  140.0576  158.1704 C.ar    1  UNL1        0.1932
     23 N         143.3992  138.9602  158.5865 N.ar    1  UNL1       -0.1221
     24 N         144.0078  139.3436  159.9027 N.ar    1  UNL1       -0.1282
     25 C         143.4499  140.6781  160.3002 C.ar    1  UNL1        0.1669
     26 N         142.4964  141.1194  159.2296 N.ar    1  UNL1       -0.2884
     27 C         141.7120  142.3979  159.2199 C.3     1  UNL1        0.1340
     28 C         143.7863  141.4378  161.5490 C.ar    1  UNL1        0.0374
     29 C         144.3184  142.8371  161.4552 C.ar    1  UNL1        0.0031
     30 C         144.6549  143.5969  162.7040 C.ar    1  UNL1        0.0016
     31 C         144.4593  142.9574  164.0466 C.ar    1  UNL1        0.0191
     32 C         143.9272  141.5581  164.1404 C.ar    1  UNL1        0.0810
     33 N         143.7315  140.9186  165.4831 N.ar    1  UNL1       -0.2497
     34 C         143.1994  139.5192  165.5770 C.ar    1  UNL1        0.0593
     35 C         143.0037  138.8797  166.9196 C.3     1  UNL1        0.0521
     36 C         142.8630  138.7595  164.3281 C.ar    1  UNL1        0.0147
     37 C         143.0586  139.3991  162.9855 C.ar    1  UNL1        0.0028
     38 C         143.5907  140.7984  162.8916 C.ar    1  UNL1        0.0206
@<TRIPOS>BOND
     1    18    19    1
     2    19     3    1
     3     3     4   ar
     4     4     5   ar
     5     5     6   ar
     6     6     7   ar
     7     7     8   ar
     8     8     9   ar
     9     9    10    1
    10     9    11   ar
    11    11    12   ar
    12     8    13    1
    13    13    14    1
    14    14    15    1
    15    15     2    1
    16     2     1    1
    17     1    20    1
    18    20    21    1
    19    21    22    1
    20    22    23   ar
    21    23    24   ar
    22    24    25   ar
    23    25    28    1
    24    28    29   ar
    25    29    30   ar
    26    30    31   ar
    27    31    32   ar
    28    32    33   ar
    29    33    34   ar
    30    34    35    1
    31    34    36   ar
    32    36    37   ar
    33    37    38   ar
    34    25    26   ar
    35    26    27    1
    36    15    16    1
    37    16    17    1
    38    12     3   ar
    39    26    22   ar
    40    11     5   ar
    41    38    28   ar
    42    17     7    1
    43    38    32   ar
@<TRIPOS>MOLECULE
*****
 38 43 0 0 0
SMALL
GASTEIGER

@<TRIPOS>ATOM
      1 C         144.2889  140.8655  158.1530 C.3     1  UNL1        0.0294
      2 C         144.2214  142.1082  158.9905 C.3     1  UNL1        0.0730
      3 C         140.4509  141.7412  167.9118 C.ar    1  UNL1        0.2057
      4 N         141.2468  140.6582  167.2457 N.ar    1  UNL1       -0.2121
      5 C         141.6288  141.1386  165.8770 C.ar    1  UNL1        0.1179
      6 C         142.4140  140.4978  164.7712 C.ar    1  UNL1        0.0178
      7 C         142.6395  141.2370  163.4856 C.ar    1  UNL1       -0.0233
      8 C         142.0797  142.6169  163.3058 C.ar    1  UNL1       -0.0256
      9 C         141.2944  143.2577  164.4115 C.ar    1  UNL1        0.0101
     10 C         140.7346  144.6377  164.2317 C.3     1  UNL1        0.0339
     11 C         141.0690  142.5186  165.6972 C.ar    1  UNL1        0.1600
     12 O         140.3410  142.8910  166.9547 O.2     1  UNL1       -0.4387
     13 C         142.1868  143.5218  162.1142 C.3     1  UNL1        0.0431
     14 C         142.8803  143.2700  160.8081 C.3     1  UNL1        0.0768
     15 N         143.6378  142.0514  160.3711 N.3     1  UNL1       -0.2720
     16 C         143.8891  140.7834  161.1322 C.3     1  UNL1        0.0768
     17 C         143.4447  140.4210  162.5183 C.3     1  UNL1        0.0434
     18 C         139.3494  140.3854  169.8349 C.3     1  UNL1        0.0102
     19 C         139.8674  141.6844  169.2925 C.3     1  UNL1        0.0853
     20 C         143.3254  140.6714  157.0198 C.3     1  UNL1        0.0666
     21 S         142.1035  139.8228  157.2113 S.3     1  UNL1       -0.0756
     22 C         141.4522  139.7393  158.5600 C.ar    1  UNL1        0.1932
     23 N         141.5058  138.5667  159.4939 N.ar    1  UNL1       -0.1221
     24 N         140.7197  138.9163  160.7226 N.ar    1  UNL1       -0.1282
     25 C         140.1802  140.3050  160.5480 C.ar    1  UNL1        0.1669
     26 N         140.6329  140.8136  159.2114 N.ar    1  UNL1       -0.2884
     27 C         140.3210  142.1602  158.6287 C.3     1  UNL1        0.1340
     28 C         139.3361  141.0537  161.5365 C.ar    1  UNL1        0.0374
     29 C         138.8135  142.4177  161.1952 C.ar    1  UNL1        0.0031
     30 C         137.9694  143.1663  162.1837 C.ar    1  UNL1        0.0016
     31 C         137.6480  142.5511  163.5134 C.ar    1  UNL1        0.0191
     32 C         138.1707  141.1872  163.8546 C.ar    1  UNL1        0.0810
     33 N         137.8493  140.5719  165.1843 N.ar    1  UNL1       -0.2497
     34 C         138.3719  139.2079  165.5256 C.ar    1  UNL1        0.0593
     35 C         138.0505  138.5926  166.8553 C.3     1  UNL1        0.0521
     36 C         139.2160  138.4592  164.5371 C.ar    1  UNL1        0.0147
     37 C         139.5374  139.0745  163.2074 C.ar    1  UNL1        0.0028
     38 C         139.0147  140.4385  162.8662 C.ar    1  UNL1        0.0206
@<TRIPOS>BOND
     1    18    19    1
     2    19     3    1
     3     3     4   ar
     4     4     5   ar
     5     5     6   ar
     6     6     7   ar
     7     7     8   ar
     8     8     9   ar
     9     9    10    1
    10     9    11   ar
    11    11    12   ar
    12     8    13    1
    13    13    14    1
    14    14    15    1
    15    15     2    1
    16     2     1    1
    17     1    20    1
    18    20    21    1
    19    21    22    1
    20    22    23   ar
    21    23    24   ar
    22    24    25   ar
    23    25    28    1
    24    28    29   ar
    25    29    30   ar
    26    30    31   ar
    27    31    32   ar
    28    32    33   ar
    29    33    34   ar
    30    34    35    1
    31    34    36   ar
    32    36    37   ar
    33    37    38   ar
    34    25    26   ar
    35    26    27    1
    36    15    16    1
    37    16    17    1
    38    12     3   ar
    39    26    22   ar
    40    11     5   ar
    41    38    28   ar
    42    17     7    1
    43    38    32   ar
@<TRIPOS>MOLECULE
*****
 38 43 0 0 0
SMALL
GASTEIGER

@<TRIPOS>ATOM
      1 C         143.5602  140.0780  158.5335 C.3     1  UNL1        0.0294
      2 C         142.8967  138.9476  159.2630 C.3     1  UNL1        0.0730
      3 C         141.6614  139.4366  168.8638 C.ar    1  UNL1        0.2057
      4 N         142.9422  139.1087  168.1551 N.ar    1  UNL1       -0.2121
      5 C         142.6777  139.1450  166.6792 C.ar    1  UNL1        0.1179
      6 C         143.5654  138.9043  165.4942 C.ar    1  UNL1        0.0178
      7 C         143.0088  139.0139  164.1055 C.ar    1  UNL1       -0.0233
      8 C         141.5647  139.3641  163.9019 C.ar    1  UNL1       -0.0256
      9 C         140.6769  139.6048  165.0868 C.ar    1  UNL1        0.0101
     10 C         139.2327  139.9551  164.8831 C.3     1  UNL1        0.0339
     11 C         141.2334  139.4952  166.4755 C.ar    1  UNL1        0.1600
     12 O         140.6053  139.6754  167.8256 O.2     1  UNL1       -0.4387
     13 C         140.8136  139.5234  162.6132 C.3     1  UNL1        0.0431
     14 C         141.3214  139.3716  161.2099 C.3     1  UNL1        0.0768
     15 N         142.7055  139.0232  160.7488 N.3     1  UNL1       -0.2720
     16 C         143.9238  138.7405  161.5770 C.3     1  UNL1        0.0768
     17 C         144.0588  138.7363  163.0709 C.3     1  UNL1        0.0434
     18 C         141.4752  140.8442  171.0396 C.3     1  UNL1        0.0102
     19 C         141.4701  139.5122  170.3496 C.3     1  UNL1        0.0853
     20 C         142.9327  140.6411  157.2929 C.3     1  UNL1        0.0666
     21 S         142.1465  141.9166  157.3627 S.3     1  UNL1       -0.0756
     22 C         142.0471  142.6664  158.6580 C.ar    1  UNL1        0.1932
     23 N         142.9885  143.7330  159.1338 N.ar    1  UNL1       -0.1221
     24 N         142.5121  144.2071  160.4748 N.ar    1  UNL1       -0.1282
     25 C         141.2764  143.4336  160.8278 C.ar    1  UNL1        0.1669
     26 N         140.9890  142.4814  159.7049 N.ar    1  UNL1       -0.2884
     27 C         139.8444  141.5140  159.6404 C.3     1  UNL1        0.1340
     28 C         140.4696  143.5855  162.0832 C.ar    1  UNL1        0.0374
     29 C         139.0307  144.0020  162.0043 C.ar    1  UNL1        0.0031
     30 C         138.2240  144.1539  163.2597 C.ar    1  UNL1        0.0016
     31 C         138.8560  143.8895  164.5940 C.ar    1  UNL1        0.0191
     32 C         140.2949  143.4731  164.6729 C.ar    1  UNL1        0.0810
     33 N         140.9270  143.2086  166.0073 N.ar    1  UNL1       -0.2497
     34 C         142.3659  142.7922  166.0863 C.ar    1  UNL1        0.0593
     35 C         142.9980  142.5278  167.4206 C.3     1  UNL1        0.0521
     36 C         143.1726  142.6403  164.8308 C.ar    1  UNL1        0.0147
     37 C         142.5405  142.9047  163.4965 C.ar    1  UNL1        0.0028
     38 C         141.1016  143.3211  163.4175 C.ar    1  UNL1        0.0206
@<TRIPOS>BOND
     1    18    19    1
     2    19     3    1
     3     3     4   ar
     4     4     5   ar
     5     5     6   ar
     6     6     7   ar
     7     7     8   ar
     8     8     9   ar
     9     9    10    1
    10     9    11   ar
    11    11    12   ar
    12     8    13    1
    13    13    14    1
    14    14    15    1
    15    15     2    1
    16     2     1    1
    17     1    20    1
    18    20    21    1
    19    21    22    1
    20    22    23   ar
    21    23    24   ar
    22    24    25   ar
    23    25    28    1
    24    28    29   ar
    25    29    30   ar
    26    30    31   ar
    27    31    32   ar
    28    32    33   ar
    29    33    34   ar
    30    34    35    1
    31    34    36   ar
    32    36    37   ar
    33    37    38   ar
    34    25    26   ar
    35    26    27    1
    36    15    16    1
    37    16    17    1
    38    12     3   ar
    39    26    22   ar
    40    11     5   ar
    41    38    28   ar
    42    17     7    1
    43    38    32   ar
