@<TRIPOS>MOLECULE
*****
 24 28 0 0 0
SMALL
GASTEIGER

@<TRIPOS>ATOM
      1 O         140.1109  138.5031  164.2298 O.3     1  UNL1       -0.4491
      2 C         139.9627  138.9597  165.6510 C.3     1  UNL1        0.1718
      3 C         141.1612  139.4435  166.4122 C.3     1  UNL1        0.0596
      4 C         141.0130  139.9001  167.8332 C.3     1  UNL1        0.0619
      5 C         142.2116  140.3839  168.5945 C.3     1  UNL1        0.0235
      6 C         142.0633  140.8405  170.0156 C.3     1  UNL1        0.0617
      7 C         140.4513  140.1433  168.8554 C.3     1  UNL1        0.0235
      8 C         138.4677  139.3891  167.7320 C.3     1  UNL1        0.0619
      9 C         138.6159  138.9325  166.3109 C.3     1  UNL1        0.0596
     10 N         139.6662  139.8729  168.4932 N.3     1  UNL1       -0.2689
     11 C         139.5180  140.3295  169.9143 C.3     1  UNL1        0.1375
     12 C         140.7166  140.8133  170.6755 C.2     1  UNL1        0.1664
     13 O         140.5684  141.2699  172.0966 O.2     1  UNL1       -0.2946
     14 O         141.1042  139.4168  162.0098 O.2     1  UNL1       -0.2448
     15 C         140.0930  139.5056  163.1142 C.2     1  UNL1        0.3427
     16 C         139.0640  140.5970  163.1030 C.2     1  UNL1        0.0958
     17 C         137.7513  140.5635  162.3780 C.2     1  UNL1        0.1049
     18 N         137.0430  141.8593  162.6417 N.2     1  UNL1       -0.2476
     19 C         137.9182  142.6935  163.5297 C.2     1  UNL1        0.0636
     20 C         137.7391  144.0628  164.1154 C.3     1  UNL1        0.0717
     21 C         138.8089  144.6518  164.9862 C.2     1  UNL1       -0.0198
     22 C         140.0580  143.8716  165.2713 C.2     1  UNL1       -0.0041
     23 C         140.2371  142.5024  164.6856 C.2     1  UNL1        0.0011
     24 C         139.1672  141.9134  163.8147 C.2     1  UNL1        0.0216
@<TRIPOS>BOND
     1    14    15    2
     2    15     1    1
     3     1     2    1
     4     2     3    1
     5     3     4    1
     6     4     5    1
     7     5     6    1
     8     6     7    1
     9     7     8    1
    10     8     9    1
    11     8    10    1
    12    10    11    1
    13    11    12    1
    14    12    13    2
    15    15    16    1
    16    16    17    2
    17    17    18    1
    18    18    19    2
    19    19    20    1
    20    20    21    1
    21    21    22    2
    22    22    23    1
    23    23    24    2
    24     9     2    1
    25    24    16    1
    26    10     4    1
    27    24    19    1
    28    12     6    1
@<TRIPOS>MOLECULE
*****
 24 28 0 0 0
SMALL
GASTEIGER

@<TRIPOS>ATOM
      1 O         142.5592  141.2932  167.6867 O.3     1  UNL1       -0.4491
      2 C         142.1637  142.1835  166.5461 C.3     1  UNL1        0.1718
      3 C         140.7177  142.5083  166.3147 C.3     1  UNL1        0.0596
      4 C         140.3223  143.3986  165.1741 C.3     1  UNL1        0.0619
      5 C         138.8763  143.7235  164.9426 C.3     1  UNL1        0.0235
      6 C         138.4809  144.6138  163.8020 C.3     1  UNL1        0.0617
      7 C         140.4774  144.0931  164.2186 C.3     1  UNL1        0.0235
      8 C         142.8189  143.6393  164.4964 C.3     1  UNL1        0.0619
      9 C         143.2143  142.7490  165.6369 C.3     1  UNL1        0.0596
     10 N         141.3729  143.9641  164.2649 N.3     1  UNL1       -0.2689
     11 C         140.9774  144.8544  163.1243 C.3     1  UNL1        0.1375
     12 C         139.5314  145.1793  162.8929 C.2     1  UNL1        0.1664
     13 O         139.1359  146.0696  161.7522 O.2     1  UNL1       -0.2946
     14 O         142.9775  138.9115  168.6369 O.2     1  UNL1       -0.2448
     15 C         142.6836  139.8135  167.4749 C.2     1  UNL1        0.3427
     16 C         142.5140  139.2356  166.1011 C.2     1  UNL1        0.0958
     17 C         143.6128  138.9671  165.1158 C.2     1  UNL1        0.1049
     18 N         142.9938  138.3903  163.8771 N.2     1  UNL1       -0.2476
     19 C         141.5125  138.3024  164.0969 C.2     1  UNL1        0.0636
     20 C         140.3954  137.8141  163.2231 C.3     1  UNL1        0.0717
     21 C         138.9819  137.8482  163.7236 C.2     1  UNL1       -0.0198
     22 C         138.6854  138.3706  165.0982 C.2     1  UNL1       -0.0041
     23 C         139.8025  138.8589  165.9720 C.2     1  UNL1        0.0011
     24 C         141.2161  138.8248  165.4714 C.2     1  UNL1        0.0216
@<TRIPOS>BOND
     1    14    15    2
     2    15     1    1
     3     1     2    1
     4     2     3    1
     5     3     4    1
     6     4     5    1
     7     5     6    1
     8     6     7    1
     9     7     8    1
    10     8     9    1
    11     8    10    1
    12    10    11    1
    13    11    12    1
    14    12    13    2
    15    15    16    1
    16    16    17    2
    17    17    18    1
    18    18    19    2
    19    19    20    1
    20    20    21    1
    21    21    22    2
    22    22    23    1
    23    23    24    2
    24     9     2    1
    25    24    16    1
    26    10     4    1
    27    24    19    1
    28    12     6    1
@<TRIPOS>MOLECULE
*****
 24 28 0 0 0
SMALL
GASTEIGER

@<TRIPOS>ATOM
      1 O         138.9033  137.3149  165.3937 O.3     1  UNL1       -0.4491
      2 C         139.5295  137.6091  164.0627 C.3     1  UNL1        0.1718
      3 C         141.0223  137.6818  163.9358 C.3     1  UNL1        0.0596
      4 C         141.6484  137.9759  162.6049 C.3     1  UNL1        0.0619
      5 C         143.1413  138.0486  162.4779 C.3     1  UNL1        0.0235
      6 C         143.7673  138.3427  161.1469 C.3     1  UNL1        0.0617
      7 C         141.6865  138.2176  161.4389 C.3     1  UNL1        0.0235
      8 C         139.2888  138.1246  161.5277 C.3     1  UNL1        0.0619
      9 C         138.6627  137.8305  162.8587 C.3     1  UNL1        0.0596
     10 N         140.7816  138.1973  161.4008 N.3     1  UNL1       -0.2689
     11 C         141.4078  138.4914  160.0698 C.3     1  UNL1        0.1375
     12 C         142.9006  138.5641  159.9429 C.2     1  UNL1        0.1664
     13 O         143.5267  138.8582  158.6119 O.2     1  UNL1       -0.2946
     14 O         137.1110  138.2510  167.0251 O.2     1  UNL1       -0.2448
     15 C         138.3744  138.4363  166.2380 C.2     1  UNL1        0.3427
     16 C         139.1088  139.7430  166.2951 C.2     1  UNL1        0.0958
     17 C         140.2475  140.0749  167.2134 C.2     1  UNL1        0.1049
     18 N         140.6759  141.4842  166.9298 N.2     1  UNL1       -0.2476
     19 C         139.8020  142.0232  165.8362 C.2     1  UNL1        0.0636
     20 C         139.7630  143.3549  165.1470 C.3     1  UNL1        0.0717
     21 C         138.7555  143.6104  164.0655 C.2     1  UNL1       -0.0198
     22 C         137.7870  142.5343  163.6732 C.2     1  UNL1       -0.0041
     23 C         137.8260  141.2026  164.3625 C.2     1  UNL1        0.0011
     24 C         138.8335  140.9471  165.4440 C.2     1  UNL1        0.0216
@<TRIPOS>BOND
     1    14    15    2
     2    15     1    1
     3     1     2    1
     4     2     3    1
     5     3     4    1
     6     4     5    1
     7     5     6    1
     8     6     7    1
     9     7     8    1
    10     8     9    1
    11     8    10    1
    12    10    11    1
    13    11    12    1
    14    12    13    2
    15    15    16    1
    16    16    17    2
    17    17    18    1
    18    18    19    2
    19    19    20    1
    20    20    21    1
    21    21    22    2
    22    22    23    1
    23    23    24    2
    24     9     2    1
    25    24    16    1
    26    10     4    1
    27    24    19    1
    28    12     6    1
@<TRIPOS>MOLECULE
*****
 24 28 0 0 0
SMALL
GASTEIGER

@<TRIPOS>ATOM
      1 O         138.2809  139.5000  165.9132 O.3     1  UNL1       -0.4491
      2 C         138.4113  140.7072  165.0323 C.3     1  UNL1        0.1718
      3 C         139.4730  141.7290  165.3126 C.3     1  UNL1        0.0596
      4 C         139.6034  142.9361  164.4318 C.3     1  UNL1        0.0619
      5 C         140.6652  143.9579  164.7121 C.3     1  UNL1        0.0235
      6 C         140.7955  145.1650  163.8313 C.3     1  UNL1        0.0617
      7 C         139.3439  143.6707  163.5305 C.3     1  UNL1        0.0235
      8 C         137.6102  142.0997  162.9905 C.3     1  UNL1        0.0619
      9 C         137.4799  140.8926  163.8713 C.3     1  UNL1        0.0596
     10 N         138.6720  143.1214  163.2708 N.3     1  UNL1       -0.2689
     11 C         138.8023  144.3286  162.3899 C.3     1  UNL1        0.1375
     12 C         139.8641  145.3504  162.6702 C.2     1  UNL1        0.1664
     13 O         139.9945  146.5576  161.7894 O.2     1  UNL1       -0.2946
     14 O         138.1141  136.9087  165.9971 O.2     1  UNL1       -0.2448
     15 C         138.7086  138.1538  165.4086 C.2     1  UNL1        0.3427
     16 C         139.7309  138.0525  164.3156 C.2     1  UNL1        0.0958
     17 C         139.4891  137.5391  162.9271 C.2     1  UNL1        0.1049
     18 N         140.7832  137.6162  162.1724 N.2     1  UNL1       -0.2476
     19 C         141.8248  138.1773  163.0946 C.2     1  UNL1        0.0636
     20 C         143.2814  138.4775  162.8994 C.3     1  UNL1        0.0717
     21 C         144.0876  139.0473  164.0286 C.2     1  UNL1       -0.0198
     22 C         143.4373  139.3170  165.3532 C.2     1  UNL1       -0.0041
     23 C         141.9807  139.0168  165.5484 C.2     1  UNL1        0.0011
     24 C         141.1744  138.4469  164.4191 C.2     1  UNL1        0.0216
@<TRIPOS>BOND
     1    14    15    2
     2    15     1    1
     3     1     2    1
     4     2     3    1
     5     3     4    1
     6     4     5    1
     7     5     6    1
     8     6     7    1
     9     7     8    1
    10     8     9    1
    11     8    10    1
    12    10    11    1
    13    11    12    1
    14    12    13    2
    15    15    16    1
    16    16    17    2
    17    17    18    1
    18    18    19    2
    19    19    20    1
    20    20    21    1
    21    21    22    2
    22    22    23    1
    23    23    24    2
    24     9     2    1
    25    24    16    1
    26    10     4    1
    27    24    19    1
    28    12     6    1
@<TRIPOS>MOLECULE
*****
 24 28 0 0 0
SMALL
GASTEIGER

@<TRIPOS>ATOM
      1 O         138.5494  139.1618  167.5210 O.3     1  UNL1       -0.4491
      2 C         138.5217  139.0312  166.0269 C.3     1  UNL1        0.1718
      3 C         138.1368  140.2066  165.1783 C.3     1  UNL1        0.0596
      4 C         138.1091  140.0759  163.6843 C.3     1  UNL1        0.0619
      5 C         137.7241  141.2513  162.8356 C.3     1  UNL1        0.0235
      6 C         137.6965  141.1206  161.3416 C.3     1  UNL1        0.0617
      7 C         138.2210  139.5383  162.6269 C.3     1  UNL1        0.0235
      8 C         138.8513  137.5944  163.8876 C.3     1  UNL1        0.0619
      9 C         138.8789  137.7251  165.3816 C.3     1  UNL1        0.0596
     10 N         138.4663  138.7698  163.0389 N.3     1  UNL1       -0.2689
     11 C         138.4386  138.6391  161.5448 C.3     1  UNL1        0.1375
     12 C         138.0537  139.8145  160.6962 C.2     1  UNL1        0.1664
     13 O         138.0260  139.6838  159.2021 O.2     1  UNL1       -0.2946
     14 O         139.9024  139.7206  169.6675 O.2     1  UNL1       -0.2448
     15 C         139.6877  139.8729  168.1907 C.2     1  UNL1        0.3427
     16 C         140.6115  140.7363  167.3837 C.2     1  UNL1        0.0958
     17 C         140.5325  142.2283  167.2509 C.2     1  UNL1        0.1049
     18 N         141.6487  142.6734  166.3529 N.2     1  UNL1       -0.2476
     19 C         142.4173  141.4564  165.9308 C.2     1  UNL1        0.0636
     20 C         143.6182  141.2837  165.0487 C.3     1  UNL1        0.0717
     21 C         144.1780  139.9139  164.8036 C.2     1  UNL1       -0.0198
     22 C         143.5370  138.7167  165.4406 C.2     1  UNL1       -0.0041
     23 C         142.3362  138.8894  166.3228 C.2     1  UNL1        0.0011
     24 C         141.7763  140.2592  166.5679 C.2     1  UNL1        0.0216
@<TRIPOS>BOND
     1    14    15    2
     2    15     1    1
     3     1     2    1
     4     2     3    1
     5     3     4    1
     6     4     5    1
     7     5     6    1
     8     6     7    1
     9     7     8    1
    10     8     9    1
    11     8    10    1
    12    10    11    1
    13    11    12    1
    14    12    13    2
    15    15    16    1
    16    16    17    2
    17    17    18    1
    18    18    19    2
    19    19    20    1
    20    20    21    1
    21    21    22    2
    22    22    23    1
    23    23    24    2
    24     9     2    1
    25    24    16    1
    26    10     4    1
    27    24    19    1
    28    12     6    1
@<TRIPOS>MOLECULE
*****
 24 28 0 0 0
SMALL
GASTEIGER

@<TRIPOS>ATOM
      1 O         138.8123  137.3674  165.1097 O.3     1  UNL1       -0.4491
      2 C         139.4686  137.6408  163.7889 C.3     1  UNL1        0.1718
      3 C         140.9643  137.6971  163.6920 C.3     1  UNL1        0.0596
      4 C         141.6206  137.9705  162.3712 C.3     1  UNL1        0.0619
      5 C         143.1164  138.0269  162.2743 C.3     1  UNL1        0.0235
      6 C         143.7726  138.3003  160.9535 C.3     1  UNL1        0.0617
      7 C         141.6850  138.1992  161.2037 C.3     1  UNL1        0.0235
      8 C         139.2852  138.1312  161.2441 C.3     1  UNL1        0.0619
      9 C         138.6290  137.8578  162.5649 C.3     1  UNL1        0.0596
     10 N         140.7810  138.1876  161.1472 N.3     1  UNL1       -0.2689
     11 C         141.4373  138.4610  159.8264 C.3     1  UNL1        0.1375
     12 C         142.9331  138.5173  159.7295 C.2     1  UNL1        0.1664
     13 O         143.5894  138.7907  158.4086 O.2     1  UNL1       -0.2946
     14 O         137.2596  138.2643  166.9898 O.2     1  UNL1       -0.2448
     15 C         138.3120  138.5058  165.9485 C.2     1  UNL1        0.3427
     16 C         138.8640  139.8858  165.7461 C.2     1  UNL1        0.0958
     17 C         138.2017  140.9978  164.9878 C.2     1  UNL1        0.1049
     18 N         139.1036  142.1953  165.0394 N.2     1  UNL1       -0.2476
     19 C         140.3233  141.8234  165.8296 C.2     1  UNL1        0.0636
     20 C         141.5495  142.6000  166.2078 C.3     1  UNL1        0.0717
     21 C         142.6276  141.9493  167.0227 C.2     1  UNL1       -0.0198
     22 C         142.4795  140.5219  167.4595 C.2     1  UNL1       -0.0041
     23 C         141.2533  139.7453  167.0812 C.2     1  UNL1        0.0011
     24 C         140.1751  140.3960  166.2663 C.2     1  UNL1        0.0216
@<TRIPOS>BOND
     1    14    15    2
     2    15     1    1
     3     1     2    1
     4     2     3    1
     5     3     4    1
     6     4     5    1
     7     5     6    1
     8     6     7    1
     9     7     8    1
    10     8     9    1
    11     8    10    1
    12    10    11    1
    13    11    12    1
    14    12    13    2
    15    15    16    1
    16    16    17    2
    17    17    18    1
    18    18    19    2
    19    19    20    1
    20    20    21    1
    21    21    22    2
    22    22    23    1
    23    23    24    2
    24     9     2    1
    25    24    16    1
    26    10     4    1
    27    24    19    1
    28    12     6    1
@<TRIPOS>MOLECULE
*****
 24 28 0 0 0
SMALL
GASTEIGER

@<TRIPOS>ATOM
      1 O         138.5835  140.0063  163.8631 O.3     1  UNL1       -0.4491
      2 C         138.8254  140.0970  165.3407 C.3     1  UNL1        0.1718
      3 C         139.7104  141.1758  165.8910 C.3     1  UNL1        0.0596
      4 C         139.9523  141.2664  167.3686 C.3     1  UNL1        0.0619
      5 C         140.8374  142.3452  167.9189 C.3     1  UNL1        0.0235
      6 C         141.0792  142.4358  169.3965 C.3     1  UNL1        0.0617
      7 C         139.8571  140.9647  168.5172 C.3     1  UNL1        0.0235
      8 C         138.4239  139.1995  167.7455 C.3     1  UNL1        0.0619
      9 C         138.1821  139.1089  166.2680 C.3     1  UNL1        0.0596
     10 N         139.3090  140.2783  168.2958 N.3     1  UNL1       -0.2689
     11 C         139.5509  140.3690  169.7735 C.3     1  UNL1        0.1375
     12 C         140.4359  141.4477  170.3238 C.2     1  UNL1        0.1664
     13 O         140.6778  141.5384  171.8014 O.2     1  UNL1       -0.2946
     14 O         138.8884  137.7540  162.6045 O.2     1  UNL1       -0.2448
     15 C         139.4229  139.0924  163.0204 C.2     1  UNL1        0.3427
     16 C         140.7969  139.5169  162.5935 C.2     1  UNL1        0.0958
     17 C         141.1554  140.1554  161.2844 C.2     1  UNL1        0.1049
     18 N         142.6336  140.4106  161.2826 N.2     1  UNL1       -0.2476
     19 C         143.1885  139.9297  162.5907 C.2     1  UNL1        0.0636
     20 C         144.5808  139.9234  163.1487 C.3     1  UNL1        0.0717
     21 C         144.8380  139.3648  164.5168 C.2     1  UNL1       -0.0198
     22 C         143.7028  138.8125  165.3270 C.2     1  UNL1       -0.0041
     23 C         142.3105  138.8188  164.7690 C.2     1  UNL1        0.0011
     24 C         142.0534  139.3774  163.4008 C.2     1  UNL1        0.0216
@<TRIPOS>BOND
     1    14    15    2
     2    15     1    1
     3     1     2    1
     4     2     3    1
     5     3     4    1
     6     4     5    1
     7     5     6    1
     8     6     7    1
     9     7     8    1
    10     8     9    1
    11     8    10    1
    12    10    11    1
    13    11    12    1
    14    12    13    2
    15    15    16    1
    16    16    17    2
    17    17    18    1
    18    18    19    2
    19    19    20    1
    20    20    21    1
    21    21    22    2
    22    22    23    1
    23    23    24    2
    24     9     2    1
    25    24    16    1
    26    10     4    1
    27    24    19    1
    28    12     6    1
@<TRIPOS>MOLECULE
*****
 24 28 0 0 0
SMALL
GASTEIGER

@<TRIPOS>ATOM
      1 O         138.8758  138.5460  164.2483 O.3     1  UNL1       -0.4491
      2 C         139.6340  138.9757  165.4693 C.3     1  UNL1        0.1718
      3 C         138.8922  139.3980  166.7027 C.3     1  UNL1        0.0596
      4 C         139.6503  139.8276  167.9236 C.3     1  UNL1        0.0619
      5 C         138.9085  140.2500  169.1571 C.3     1  UNL1        0.0235
      6 C         139.6667  140.6796  170.3780 C.3     1  UNL1        0.0617
      7 C         140.6044  140.0682  168.5954 C.3     1  UNL1        0.0235
      8 C         141.8920  139.4126  166.6777 C.3     1  UNL1        0.0619
      9 C         141.1339  138.9830  165.4568 C.3     1  UNL1        0.0596
     10 N         141.1502  139.8349  167.9111 N.3     1  UNL1       -0.2689
     11 C         141.9084  140.2645  169.1321 C.3     1  UNL1        0.1375
     12 C         141.1666  140.6869  170.3655 C.2     1  UNL1        0.1664
     13 O         141.9247  141.1165  171.5864 O.2     1  UNL1       -0.2946
     14 O         137.6969  139.1937  162.0256 O.2     1  UNL1       -0.2448
     15 C         138.6921  139.4999  163.1054 C.2     1  UNL1        0.3427
     16 C         139.5035  140.7599  163.0422 C.2     1  UNL1        0.0958
     17 C         140.8273  140.9225  162.3558 C.2     1  UNL1        0.1049
     18 N         141.2756  142.3416  162.5436 N.2     1  UNL1       -0.2476
     19 C         140.2288  143.0560  163.3461 C.2     1  UNL1        0.0636
     20 C         140.1313  144.4704  163.8360 C.3     1  UNL1        0.0717
     21 C         138.9388  144.9072  164.6340 C.2     1  UNL1       -0.0198
     22 C         137.8435  143.9296  164.9422 C.2     1  UNL1       -0.0041
     23 C         137.9410  142.5152  164.4522 C.2     1  UNL1        0.0011
     24 C         139.1336  142.0784  163.6542 C.2     1  UNL1        0.0216
@<TRIPOS>BOND
     1    14    15    2
     2    15     1    1
     3     1     2    1
     4     2     3    1
     5     3     4    1
     6     4     5    1
     7     5     6    1
     8     6     7    1
     9     7     8    1
    10     8     9    1
    11     8    10    1
    12    10    11    1
    13    11    12    1
    14    12    13    2
    15    15    16    1
    16    16    17    2
    17    17    18    1
    18    18    19    2
    19    19    20    1
    20    20    21    1
    21    21    22    2
    22    22    23    1
    23    23    24    2
    24     9     2    1
    25    24    16    1
    26    10     4    1
    27    24    19    1
    28    12     6    1
@<TRIPOS>MOLECULE
*****
 24 28 0 0 0
SMALL
GASTEIGER

@<TRIPOS>ATOM
      1 O         143.1999  142.6500  164.2395 O.3     1  UNL1       -0.4491
      2 C         142.4825  142.6404  165.5569 C.3     1  UNL1        0.1718
      3 C         143.2341  142.3323  166.8179 C.3     1  UNL1        0.0596
      4 C         142.5168  142.3227  168.1352 C.3     1  UNL1        0.0619
      5 C         143.2684  142.0146  169.3963 C.3     1  UNL1        0.0235
      6 C         142.5511  142.0050  170.7136 C.3     1  UNL1        0.0617
      7 C         141.5964  142.4237  168.8849 C.3     1  UNL1        0.0235
      8 C         140.2963  142.9293  166.9305 C.3     1  UNL1        0.0619
      9 C         141.0136  142.9389  165.6132 C.3     1  UNL1        0.0596
     10 N         141.0479  142.6212  168.1915 N.3     1  UNL1       -0.2689
     11 C         140.3305  142.6116  169.5089 C.3     1  UNL1        0.1375
     12 C         141.0821  142.3035  170.7699 C.2     1  UNL1        0.1664
     13 O         140.3648  142.2939  172.0872 O.2     1  UNL1       -0.2946
     14 O         143.7469  141.4688  161.9911 O.2     1  UNL1       -0.2448
     15 C         143.2559  141.4035  163.4070 C.2     1  UNL1        0.3427
     16 C         142.8209  140.0918  163.9902 C.2     1  UNL1        0.0958
     17 C         143.6845  139.1427  164.7670 C.2     1  UNL1        0.1049
     18 N         142.8433  137.9631  165.1560 N.2     1  UNL1       -0.2476
     19 C         141.4598  138.1834  164.6196 C.2     1  UNL1        0.0636
     20 C         140.2109  137.3560  164.6941 C.3     1  UNL1        0.0717
     21 C         138.9482  137.8441  164.0482 C.2     1  UNL1       -0.0198
     22 C         138.9344  139.1597  163.3277 C.2     1  UNL1       -0.0041
     23 C         140.1833  139.9871  163.2532 C.2     1  UNL1        0.0011
     24 C         141.4460  139.4989  163.8991 C.2     1  UNL1        0.0216
@<TRIPOS>BOND
     1    14    15    2
     2    15     1    1
     3     1     2    1
     4     2     3    1
     5     3     4    1
     6     4     5    1
     7     5     6    1
     8     6     7    1
     9     7     8    1
    10     8     9    1
    11     8    10    1
    12    10    11    1
    13    11    12    1
    14    12    13    2
    15    15    16    1
    16    16    17    2
    17    17    18    1
    18    18    19    2
    19    19    20    1
    20    20    21    1
    21    21    22    2
    22    22    23    1
    23    23    24    2
    24     9     2    1
    25    24    16    1
    26    10     4    1
    27    24    19    1
    28    12     6    1
