@<TRIPOS>MOLECULE
*****
 39 43 0 0 0
SMALL
GASTEIGER

@<TRIPOS>ATOM
      1 C         142.8714  143.6346  161.4864 C.3     1  UNL1        0.0993
      2 N         142.3244  144.1447  160.1861 N.3     1  UNL1       -0.2687
      3 C         142.9186  143.6812  158.8892 C.3     1  UNL1        0.0760
      4 C         142.3717  144.1913  157.5890 C.3     1  UNL1        0.0575
      5 C         141.2305  145.1648  157.5857 C.3     1  UNL1        0.1391
      6 C         140.6363  145.6282  158.8826 C.3     1  UNL1        0.0575
      7 C         141.1832  145.1182  160.1828 C.3     1  UNL1        0.0760
      8 C         140.0984  146.1358  157.4256 C.3     1  UNL1        0.0516
      9 C         139.8878  146.3645  155.9581 C.3     1  UNL1        0.1068
     10 C         140.8898  145.5349  155.2112 C.2     1  UNL1        0.3167
     11 O         141.0363  145.4599  153.7204 O.2     1  UNL1       -0.2501
     12 O         141.7196  144.7934  156.2170 O.3     1  UNL1       -0.4556
     13 C         138.8564  147.2648  155.3452 C.3     1  UNL1        0.0376
     14 C         139.1874  148.6998  155.0608 C.ar    1  UNL1       -0.0215
     15 C         138.5168  149.7927  155.8393 C.ar    1  UNL1       -0.0019
     16 C         138.8477  151.2278  155.5549 C.ar    1  UNL1        0.0293
     17 C         139.8492  151.5701  154.4919 C.ar    1  UNL1        0.1401
     18 F         140.1801  153.0052  154.2074 F       1  UNL1       -0.2042
     19 C         140.5197  150.4772  153.7133 C.ar    1  UNL1        0.0293
     20 C         140.1888  149.0421  153.9978 C.ar    1  UNL1       -0.0019
     21 C         141.9732  140.8691  164.1875 C.ar    1  UNL1        0.1411
     22 C         142.7591  141.8595  163.3802 C.ar    1  UNL1        0.0342
     23 C         142.0856  142.6443  162.2937 C.ar    1  UNL1       -0.0001
     24 C         140.6261  142.4387  162.0145 C.ar    1  UNL1        0.0342
     25 C         139.8403  141.4483  162.8217 C.ar    1  UNL1        0.1411
     26 C         140.5139  140.6636  163.9082 C.ar    1  UNL1        0.0679
     27 C         139.7281  139.6733  164.7155 C.ar    1  UNL1        0.0060
     28 C         139.6700  138.2362  164.2896 C.ar    1  UNL1        0.0025
     29 C         138.8841  137.2458  165.0969 C.ar    1  UNL1        0.0296
     30 C         138.1564  137.6926  166.3301 C.ar    1  UNL1        0.1401
     31 F         137.3706  136.7023  167.1374 F       1  UNL1       -0.2042
     32 C         138.2145  139.1297  166.7560 C.ar    1  UNL1        0.0296
     33 C         139.0003  140.1200  165.9488 C.ar    1  UNL1        0.0025
     34 O         142.6467  140.0844  165.2740 O.3     1  UNL1       -0.4754
     35 C         142.1360  141.9887  166.9661 C.3     1  UNL1        0.0512
     36 C         142.7211  140.6407  166.6651 C.3     1  UNL1        0.2055
     37 O         138.3810  141.2428  162.5425 O.3     1  UNL1       -0.4754
     38 C         137.3610  142.1321  163.1896 C.3     1  UNL1        0.2055
     39 C         137.7886  143.1453  164.2097 C.3     1  UNL1        0.0512
@<TRIPOS>BOND
     1    35    36    1
     2    36    34    1
     3    34    21    1
     4    21    22   ar
     5    22    23   ar
     6    23     1    1
     7     1     2    1
     8     2     3    1
     9     3     4    1
    10     4     5    1
    11     5     6    1
    12     6     7    1
    13     5     8    1
    14     8     9    1
    15     9    13    1
    16    13    14    1
    17    14    15   ar
    18    15    16   ar
    19    16    17   ar
    20    17    18    1
    21    17    19   ar
    22    19    20   ar
    23     9    10    1
    24    10    11    2
    25    10    12    1
    26    23    24   ar
    27    24    25   ar
    28    25    37    1
    29    37    38    1
    30    38    39    1
    31    25    26   ar
    32    26    27    1
    33    27    28   ar
    34    28    29   ar
    35    29    30   ar
    36    30    31    1
    37    30    32   ar
    38    32    33   ar
    39    26    21   ar
    40    33    27   ar
    41     7     2    1
    42    20    14   ar
    43    12     5    1
@<TRIPOS>MOLECULE
*****
 39 43 0 0 0
SMALL
GASTEIGER

@<TRIPOS>ATOM
      1 C         142.7702  143.7847  161.5235 C.3     1  UNL1        0.0993
      2 N         142.2443  144.2634  160.2027 N.3     1  UNL1       -0.2687
      3 C         142.8651  143.7761  158.9272 C.3     1  UNL1        0.0760
      4 C         142.3392  144.2547  157.6065 C.3     1  UNL1        0.0575
      5 C         141.1924  145.2206  157.5613 C.3     1  UNL1        0.1391
      6 C         140.5716  145.7078  158.8369 C.3     1  UNL1        0.0575
      7 C         141.0975  145.2292  160.1576 C.3     1  UNL1        0.0760
      8 C         140.0577  146.1807  157.3598 C.3     1  UNL1        0.0516
      9 C         139.8728  146.3766  155.8841 C.3     1  UNL1        0.1068
     10 C         140.8934  145.5376  155.1737 C.2     1  UNL1        0.3167
     11 O         141.0677  145.4317  153.6877 O.2     1  UNL1       -0.2501
     12 O         141.7089  144.8232  156.2102 O.3     1  UNL1       -0.4556
     13 C         138.8475  147.2569  155.2332 C.3     1  UNL1        0.0376
     14 C         139.1534  148.7032  154.9790 C.ar    1  UNL1       -0.0215
     15 C         140.0861  149.0887  153.8692 C.ar    1  UNL1       -0.0019
     16 C         140.3920  150.5350  153.6150 C.ar    1  UNL1        0.0293
     17 C         139.7653  151.5958  154.4705 C.ar    1  UNL1        0.1401
     18 F         140.0712  153.0421  154.2163 F       1  UNL1       -0.2042
     19 C         138.8326  151.2103  155.5803 C.ar    1  UNL1        0.0293
     20 C         138.5267  149.7639  155.8345 C.ar    1  UNL1       -0.0019
     21 C         139.7678  141.5478  162.8395 C.ar    1  UNL1        0.1411
     22 C         140.5379  142.5639  162.0492 C.ar    1  UNL1        0.0342
     23 C         142.0001  142.7687  162.3138 C.ar    1  UNL1       -0.0001
     24 C         142.6922  141.9573  163.3686 C.ar    1  UNL1        0.0342
     25 C         141.9221  140.9412  164.1589 C.ar    1  UNL1        0.1411
     26 C         140.4599  140.7365  163.8943 C.ar    1  UNL1        0.0679
     27 C         139.6898  139.7205  164.6846 C.ar    1  UNL1        0.0060
     28 C         138.8859  140.1493  165.8761 C.ar    1  UNL1        0.0025
     29 C         138.1158  139.1331  166.6664 C.ar    1  UNL1        0.0296
     30 C         138.1496  137.6882  166.2651 C.ar    1  UNL1        0.1401
     31 F         137.3795  136.6722  167.0553 F       1  UNL1       -0.2042
     32 C         138.9535  137.2594  165.0735 C.ar    1  UNL1        0.0296
     33 C         139.7236  138.2755  164.2833 C.ar    1  UNL1        0.0025
     34 O         138.3056  141.3431  162.5749 O.3     1  UNL1       -0.4754
     35 C         137.7200  143.2435  164.2469 C.3     1  UNL1        0.0512
     36 C         137.2953  142.2628  163.1944 C.3     1  UNL1        0.2055
     37 O         142.6143  140.1299  165.2137 O.3     1  UNL1       -0.4754
     38 C         142.5250  140.5396  166.6540 C.3     1  UNL1        0.2055
     39 C         142.5958  139.5019  167.7347 C.3     1  UNL1        0.0512
@<TRIPOS>BOND
     1    35    36    1
     2    36    34    1
     3    34    21    1
     4    21    22   ar
     5    22    23   ar
     6    23     1    1
     7     1     2    1
     8     2     3    1
     9     3     4    1
    10     4     5    1
    11     5     6    1
    12     6     7    1
    13     5     8    1
    14     8     9    1
    15     9    13    1
    16    13    14    1
    17    14    15   ar
    18    15    16   ar
    19    16    17   ar
    20    17    18    1
    21    17    19   ar
    22    19    20   ar
    23     9    10    1
    24    10    11    2
    25    10    12    1
    26    23    24   ar
    27    24    25   ar
    28    25    37    1
    29    37    38    1
    30    38    39    1
    31    25    26   ar
    32    26    27    1
    33    27    28   ar
    34    28    29   ar
    35    29    30   ar
    36    30    31    1
    37    30    32   ar
    38    32    33   ar
    39    26    21   ar
    40    33    27   ar
    41     7     2    1
    42    20    14   ar
    43    12     5    1
@<TRIPOS>MOLECULE
*****
 39 43 0 0 0
SMALL
GASTEIGER

@<TRIPOS>ATOM
      1 C         139.6652  141.3133  159.9194 C.3     1  UNL1        0.0993
      2 N         140.3960  140.3008  159.0882 N.3     1  UNL1       -0.2687
      3 C         141.8055  140.5670  158.6497 C.3     1  UNL1        0.0760
      4 C         142.5362  139.5545  157.8184 C.3     1  UNL1        0.0575
      5 C         141.8573  138.2759  157.4257 C.3     1  UNL1        0.1391
      6 C         140.4478  138.0097  157.8642 C.3     1  UNL1        0.0575
      7 C         139.7171  139.0222  158.6954 C.3     1  UNL1        0.0760
      8 C         141.3114  136.9592  156.9584 C.3     1  UNL1        0.0516
      9 C         142.3789  136.2718  156.1597 C.3     1  UNL1        0.1068
     10 C         143.5847  137.1638  156.1333 C.2     1  UNL1        0.3167
     11 O         144.8845  136.8689  155.4453 O.2     1  UNL1       -0.2501
     12 O         143.2624  138.4023  156.9157 O.3     1  UNL1       -0.4556
     13 C         142.2614  134.9285  155.5027 C.3     1  UNL1        0.0376
     14 C         142.8526  133.7174  156.1610 C.ar    1  UNL1       -0.0215
     15 C         142.2923  132.3567  155.8698 C.ar    1  UNL1       -0.0019
     16 C         142.8836  131.1455  156.5281 C.ar    1  UNL1        0.0293
     17 C         144.0352  131.2949  157.4776 C.ar    1  UNL1        0.1401
     18 F         144.6265  130.0837  158.1359 F       1  UNL1       -0.2042
     19 C         144.5955  132.6556  157.7687 C.ar    1  UNL1        0.0293
     20 C         144.0042  133.8668  157.1104 C.ar    1  UNL1       -0.0019
     21 C         140.8824  140.3979  163.5842 C.ar    1  UNL1        0.1411
     22 C         140.8265  140.4754  162.0872 C.ar    1  UNL1        0.0342
     23 C         139.7212  141.2358  161.4164 C.ar    1  UNL1       -0.0001
     24 C         138.6717  141.9186  162.2425 C.ar    1  UNL1        0.0342
     25 C         138.7276  141.8411  163.7394 C.ar    1  UNL1        0.1411
     26 C         139.8330  141.0808  164.4103 C.ar    1  UNL1        0.0679
     27 C         139.8889  141.0033  165.9072 C.ar    1  UNL1        0.0060
     28 C         139.1499  139.9163  166.6301 C.ar    1  UNL1        0.0025
     29 C         139.2059  139.8389  168.1271 C.ar    1  UNL1        0.0296
     30 C         140.0008  140.8483  168.9011 C.ar    1  UNL1        0.1401
     31 F         140.0567  140.7708  170.3980 F       1  UNL1       -0.2042
     32 C         140.7397  141.9352  168.1783 C.ar    1  UNL1        0.0296
     33 C         140.6838  142.0127  166.6813 C.ar    1  UNL1        0.0025
     34 O         141.9877  139.6376  164.2551 O.3     1  UNL1       -0.4754
     35 C         140.6290  137.4304  164.0751 C.3     1  UNL1        0.0512
     36 C         141.7842  138.2022  164.6405 C.3     1  UNL1        0.2055
     37 O         137.6782  142.5240  164.5654 O.3     1  UNL1       -0.4754
     38 C         137.6553  144.0208  164.6610 C.3     1  UNL1        0.2055
     39 C         138.8758  144.7617  165.1209 C.3     1  UNL1        0.0512
@<TRIPOS>BOND
     1    35    36    1
     2    36    34    1
     3    34    21    1
     4    21    22   ar
     5    22    23   ar
     6    23     1    1
     7     1     2    1
     8     2     3    1
     9     3     4    1
    10     4     5    1
    11     5     6    1
    12     6     7    1
    13     5     8    1
    14     8     9    1
    15     9    13    1
    16    13    14    1
    17    14    15   ar
    18    15    16   ar
    19    16    17   ar
    20    17    18    1
    21    17    19   ar
    22    19    20   ar
    23     9    10    1
    24    10    11    2
    25    10    12    1
    26    23    24   ar
    27    24    25   ar
    28    25    37    1
    29    37    38    1
    30    38    39    1
    31    25    26   ar
    32    26    27    1
    33    27    28   ar
    34    28    29   ar
    35    29    30   ar
    36    30    31    1
    37    30    32   ar
    38    32    33   ar
    39    26    21   ar
    40    33    27   ar
    41     7     2    1
    42    20    14   ar
    43    12     5    1
@<TRIPOS>MOLECULE
*****
 39 43 0 0 0
SMALL
GASTEIGER

@<TRIPOS>ATOM
      1 C         139.6743  141.3198  159.9187 C.3     1  UNL1        0.0993
      2 N         140.4056  140.3078  159.0873 N.3     1  UNL1       -0.2687
      3 C         141.8147  140.5751  158.6482 C.3     1  UNL1        0.0760
      4 C         142.5459  139.5632  157.8168 C.3     1  UNL1        0.0575
      5 C         141.8681  138.2838  157.4246 C.3     1  UNL1        0.1391
      6 C         140.4590  138.0165  157.8637 C.3     1  UNL1        0.0575
      7 C         139.7277  139.0285  158.6951 C.3     1  UNL1        0.0760
      8 C         141.3231  136.9666  156.9579 C.3     1  UNL1        0.0516
      9 C         142.3909  136.2800  156.1588 C.3     1  UNL1        0.1068
     10 C         143.5959  137.1730  156.1317 C.2     1  UNL1        0.3167
     11 O         144.8957  136.8792  155.4432 O.2     1  UNL1       -0.2501
     12 O         143.2728  138.4114  156.9140 O.3     1  UNL1       -0.4556
     13 C         142.2743  134.9365  155.5021 C.3     1  UNL1        0.0376
     14 C         142.8563  133.7241  156.1662 C.ar    1  UNL1       -0.0215
     15 C         144.0158  133.8681  157.1070 C.ar    1  UNL1       -0.0019
     16 C         144.5978  132.6557  157.7712 C.ar    1  UNL1        0.0293
     17 C         144.0204  131.2992  157.4947 C.ar    1  UNL1        0.1401
     18 F         144.6025  130.0867  158.1589 F       1  UNL1       -0.2042
     19 C         142.8610  131.1551  156.5539 C.ar    1  UNL1        0.0293
     20 C         142.2789  132.3676  155.8897 C.ar    1  UNL1       -0.0019
     21 C         138.7333  141.8443  163.7383 C.ar    1  UNL1        0.1411
     22 C         138.6785  141.9228  162.2413 C.ar    1  UNL1        0.0342
     23 C         139.7291  141.2413  161.4156 C.ar    1  UNL1       -0.0001
     24 C         140.8344  140.4812  162.0869 C.ar    1  UNL1        0.0342
     25 C         140.8892  140.4027  163.5838 C.ar    1  UNL1        0.1411
     26 C         139.8387  141.0842  164.4095 C.ar    1  UNL1        0.0679
     27 C         139.8934  141.0057  165.9064 C.ar    1  UNL1        0.0060
     28 C         139.1385  139.9298  166.6292 C.ar    1  UNL1        0.0025
     29 C         139.1933  139.8513  168.1262 C.ar    1  UNL1        0.0296
     30 C         140.0030  140.8488  168.9003 C.ar    1  UNL1        0.1401
     31 F         140.0578  140.7703  170.3972 F       1  UNL1       -0.2042
     32 C         140.7580  141.9247  168.1776 C.ar    1  UNL1        0.0296
     33 C         140.7032  142.0032  166.6807 C.ar    1  UNL1        0.0025
     34 O         137.6828  142.5258  164.5641 O.3     1  UNL1       -0.4754
     35 C         138.8349  144.7650  165.2033 C.3     1  UNL1        0.0512
     36 C         137.6532  144.0229  164.6531 C.3     1  UNL1        0.2055
     37 O         141.9945  139.6426  164.2550 O.3     1  UNL1       -0.4754
     38 C         141.8102  138.1928  164.5929 C.3     1  UNL1        0.2055
     39 C         140.5543  137.4814  164.1849 C.3     1  UNL1        0.0512
@<TRIPOS>BOND
     1    35    36    1
     2    36    34    1
     3    34    21    1
     4    21    22   ar
     5    22    23   ar
     6    23     1    1
     7     1     2    1
     8     2     3    1
     9     3     4    1
    10     4     5    1
    11     5     6    1
    12     6     7    1
    13     5     8    1
    14     8     9    1
    15     9    13    1
    16    13    14    1
    17    14    15   ar
    18    15    16   ar
    19    16    17   ar
    20    17    18    1
    21    17    19   ar
    22    19    20   ar
    23     9    10    1
    24    10    11    2
    25    10    12    1
    26    23    24   ar
    27    24    25   ar
    28    25    37    1
    29    37    38    1
    30    38    39    1
    31    25    26   ar
    32    26    27    1
    33    27    28   ar
    34    28    29   ar
    35    29    30   ar
    36    30    31    1
    37    30    32   ar
    38    32    33   ar
    39    26    21   ar
    40    33    27   ar
    41     7     2    1
    42    20    14   ar
    43    12     5    1
@<TRIPOS>MOLECULE
*****
 39 43 0 0 0
SMALL
GASTEIGER

@<TRIPOS>ATOM
      1 C         139.1653  141.3670  160.5985 C.3     1  UNL1        0.0993
      2 N         139.9279  140.5008  159.6401 N.3     1  UNL1       -0.2687
      3 C         141.3655  140.8030  159.3371 C.3     1  UNL1        0.0760
      4 C         142.1280  139.9369  158.3788 C.3     1  UNL1        0.0575
      5 C         141.4529  138.7686  157.7235 C.3     1  UNL1        0.1391
      6 C         140.0153  138.4665  158.0266 C.3     1  UNL1        0.0575
      7 C         139.2528  139.3326  158.9849 C.3     1  UNL1        0.0760
      8 C         140.9143  137.5727  156.9957 C.3     1  UNL1        0.0516
      9 C         142.0165  137.0113  156.1471 C.3     1  UNL1        0.1068
     10 C         143.2363  137.8603  156.3504 C.2     1  UNL1        0.3167
     11 O         144.5701  137.6586  155.6947 O.2     1  UNL1       -0.2501
     12 O         142.8880  138.9463  157.3247 O.3     1  UNL1       -0.4556
     13 C         141.9164  135.8116  155.2523 C.3     1  UNL1        0.0376
     14 C         142.2664  134.4516  155.7793 C.ar    1  UNL1       -0.0215
     15 C         143.3277  134.3045  156.8291 C.ar    1  UNL1       -0.0019
     16 C         143.6778  132.9444  157.3562 C.ar    1  UNL1        0.0293
     17 C         142.9667  131.7316  156.8334 C.ar    1  UNL1        0.1401
     18 F         143.3168  130.3715  157.3604 F       1  UNL1       -0.2042
     19 C         141.9054  131.8788  155.7835 C.ar    1  UNL1        0.0293
     20 C         141.5553  133.2388  155.2564 C.ar    1  UNL1       -0.0019
     21 C         140.4031  140.6191  164.2943 C.ar    1  UNL1        0.1411
     22 C         139.8870  140.4062  162.9020 C.ar    1  UNL1        0.0342
     23 C         139.6814  141.5798  161.9907 C.ar    1  UNL1       -0.0001
     24 C         139.9919  142.9663  162.4717 C.ar    1  UNL1        0.0342
     25 C         140.5080  143.1791  163.8640 C.ar    1  UNL1        0.1411
     26 C         140.7136  142.0055  164.7752 C.ar    1  UNL1        0.0679
     27 C         141.2297  142.2184  166.1674 C.ar    1  UNL1        0.0060
     28 C         142.6990  142.1070  166.4479 C.ar    1  UNL1        0.0025
     29 C         143.2151  142.3199  167.8402 C.ar    1  UNL1        0.0296
     30 C         142.2618  142.6441  168.9520 C.ar    1  UNL1        0.1401
     31 F         142.7779  142.8569  170.3442 F       1  UNL1       -0.2042
     32 C         140.7925  142.7555  168.6715 C.ar    1  UNL1        0.0296
     33 C         140.2764  142.5426  167.2793 C.ar    1  UNL1        0.0025
     34 O         140.6088  139.4455  165.2055 O.3     1  UNL1       -0.4754
     35 C         138.1548  139.3491  166.0534 C.3     1  UNL1        0.0512
     36 C         139.4294  138.6507  165.6825 C.3     1  UNL1        0.2055
     37 O         140.8184  144.5656  164.3449 O.3     1  UNL1       -0.4754
     38 C         141.9801  145.3177  163.7661 C.3     1  UNL1        0.2055
     39 C         143.3658  144.7528  163.8696 C.3     1  UNL1        0.0512
@<TRIPOS>BOND
     1    35    36    1
     2    36    34    1
     3    34    21    1
     4    21    22   ar
     5    22    23   ar
     6    23     1    1
     7     1     2    1
     8     2     3    1
     9     3     4    1
    10     4     5    1
    11     5     6    1
    12     6     7    1
    13     5     8    1
    14     8     9    1
    15     9    13    1
    16    13    14    1
    17    14    15   ar
    18    15    16   ar
    19    16    17   ar
    20    17    18    1
    21    17    19   ar
    22    19    20   ar
    23     9    10    1
    24    10    11    2
    25    10    12    1
    26    23    24   ar
    27    24    25   ar
    28    25    37    1
    29    37    38    1
    30    38    39    1
    31    25    26   ar
    32    26    27    1
    33    27    28   ar
    34    28    29   ar
    35    29    30   ar
    36    30    31    1
    37    30    32   ar
    38    32    33   ar
    39    26    21   ar
    40    33    27   ar
    41     7     2    1
    42    20    14   ar
    43    12     5    1
@<TRIPOS>MOLECULE
*****
 39 43 0 0 0
SMALL
GASTEIGER

@<TRIPOS>ATOM
      1 C         141.6336  142.2026  160.5989 C.3     1  UNL1        0.0993
      2 N         141.2977  141.1232  159.6129 N.3     1  UNL1       -0.2687
      3 C         139.8664  140.8547  159.2535 C.3     1  UNL1        0.0760
      4 C         139.5305  139.7754  158.2675 C.3     1  UNL1        0.0575
      5 C         140.6259  138.9645  157.6410 C.3     1  UNL1        0.1391
      6 C         142.0572  139.2330  158.0004 C.3     1  UNL1        0.0575
      7 C         142.3931  140.3124  158.9863 C.3     1  UNL1        0.0760
      8 C         141.6087  138.0768  156.9367 C.3     1  UNL1        0.0516
      9 C         140.8384  137.1469  156.0466 C.3     1  UNL1        0.1068
     10 C         139.3796  137.4601  156.2008 C.2     1  UNL1        0.3167
     11 O         138.2504  136.7709  155.4938 O.2     1  UNL1       -0.2501
     12 O         139.2482  138.5834  157.1862 O.3     1  UNL1       -0.4556
     13 C         141.4241  136.0897  155.1583 C.3     1  UNL1        0.0376
     14 C         141.9738  134.8284  155.7555 C.ar    1  UNL1       -0.0215
     15 C         143.0123  134.9005  156.8356 C.ar    1  UNL1       -0.0019
     16 C         143.5620  133.6391  157.4329 C.ar    1  UNL1        0.0293
     17 C         143.0734  132.3057  156.9502 C.ar    1  UNL1        0.1401
     18 F         143.6232  131.0443  157.5475 F       1  UNL1       -0.2042
     19 C         142.0350  132.2335  155.8701 C.ar    1  UNL1        0.0293
     20 C         141.4852  133.4949  155.2728 C.ar    1  UNL1       -0.0019
     21 C         142.0784  141.3079  164.4397 C.ar    1  UNL1        0.1411
     22 C         142.3861  141.4995  162.9841 C.ar    1  UNL1        0.0342
     23 C         141.3260  142.0111  162.0544 C.ar    1  UNL1       -0.0001
     24 C         139.9581  142.3312  162.5803 C.ar    1  UNL1        0.0342
     25 C         139.6504  142.1396  164.0358 C.ar    1  UNL1        0.1411
     26 C         140.7106  141.6280  164.9655 C.ar    1  UNL1        0.0679
     27 C         140.4029  141.4365  166.4211 C.ar    1  UNL1        0.0060
     28 C         140.7850  142.4939  167.4139 C.ar    1  UNL1        0.0025
     29 C         140.4773  142.3023  168.8695 C.ar    1  UNL1        0.0296
     30 C         139.7875  141.0533  169.3322 C.ar    1  UNL1        0.1401
     31 F         139.4798  140.8618  170.7877 F       1  UNL1       -0.2042
     32 C         139.4053  139.9959  168.3393 C.ar    1  UNL1        0.0296
     33 C         139.7130  140.1874  166.8838 C.ar    1  UNL1        0.0025
     34 O         143.1385  140.7963  165.3694 O.3     1  UNL1       -0.4754
     35 C         142.4715  138.2902  165.2119 C.3     1  UNL1        0.0512
     36 C         143.5276  139.3479  165.3387 C.3     1  UNL1        0.2055
     37 O         138.2826  142.4597  164.5617 O.3     1  UNL1       -0.4754
     38 C         137.8548  143.8889  164.7186 C.3     1  UNL1        0.2055
     39 C         138.7628  144.8737  165.3936 C.3     1  UNL1        0.0512
@<TRIPOS>BOND
     1    35    36    1
     2    36    34    1
     3    34    21    1
     4    21    22   ar
     5    22    23   ar
     6    23     1    1
     7     1     2    1
     8     2     3    1
     9     3     4    1
    10     4     5    1
    11     5     6    1
    12     6     7    1
    13     5     8    1
    14     8     9    1
    15     9    13    1
    16    13    14    1
    17    14    15   ar
    18    15    16   ar
    19    16    17   ar
    20    17    18    1
    21    17    19   ar
    22    19    20   ar
    23     9    10    1
    24    10    11    2
    25    10    12    1
    26    23    24   ar
    27    24    25   ar
    28    25    37    1
    29    37    38    1
    30    38    39    1
    31    25    26   ar
    32    26    27    1
    33    27    28   ar
    34    28    29   ar
    35    29    30   ar
    36    30    31    1
    37    30    32   ar
    38    32    33   ar
    39    26    21   ar
    40    33    27   ar
    41     7     2    1
    42    20    14   ar
    43    12     5    1
@<TRIPOS>MOLECULE
*****
 39 43 0 0 0
SMALL
GASTEIGER

@<TRIPOS>ATOM
      1 C         139.0745  141.6219  160.9717 C.3     1  UNL1        0.0993
      2 N         139.8127  140.7501  159.9994 N.3     1  UNL1       -0.2687
      3 C         141.2486  141.0375  159.6747 C.3     1  UNL1        0.0760
      4 C         141.9866  140.1658  158.7025 C.3     1  UNL1        0.0575
      5 C         141.2888  139.0066  158.0550 C.3     1  UNL1        0.1391
      6 C         139.8529  138.7192  158.3797 C.3     1  UNL1        0.0575
      7 C         139.1148  139.5910  159.3519 C.3     1  UNL1        0.0760
      8 C         140.7259  137.8185  157.3327 C.3     1  UNL1        0.0516
      9 C         141.8086  137.2474  156.4656 C.3     1  UNL1        0.1068
     10 C         143.0406  138.0826  156.6520 C.2     1  UNL1        0.3167
     11 O         144.3618  137.8683  155.9751 O.2     1  UNL1       -0.2501
     12 O         142.7194  139.1698  157.6343 O.3     1  UNL1       -0.4556
     13 C         141.6816  136.0512  155.5695 C.3     1  UNL1        0.0376
     14 C         142.1927  134.7162  156.0238 C.ar    1  UNL1       -0.0215
     15 C         143.2642  134.6400  157.0708 C.ar    1  UNL1       -0.0019
     16 C         143.7753  133.3049  157.5251 C.ar    1  UNL1        0.0293
     17 C         143.2148  132.0461  156.9325 C.ar    1  UNL1        0.1401
     18 F         143.7259  130.7110  157.3868 F       1  UNL1       -0.2042
     19 C         142.1433  132.1223  155.8855 C.ar    1  UNL1        0.0293
     20 C         141.6322  133.4574  155.4312 C.ar    1  UNL1       -0.0019
     21 C         140.9428  143.2098  164.0923 C.ar    1  UNL1        0.1411
     22 C         140.4143  143.0237  162.7008 C.ar    1  UNL1        0.0342
     23 C         139.6030  141.8081  162.3631 C.ar    1  UNL1       -0.0001
     24 C         139.3200  140.7787  163.4168 C.ar    1  UNL1        0.0342
     25 C         139.8485  140.9648  164.8082 C.ar    1  UNL1        0.1411
     26 C         140.6598  142.1804  165.1460 C.ar    1  UNL1        0.0679
     27 C         141.1883  142.3666  166.5374 C.ar    1  UNL1        0.0060
     28 C         140.2872  142.8848  167.6188 C.ar    1  UNL1        0.0025
     29 C         140.8157  143.0710  169.0102 C.ar    1  UNL1        0.0296
     30 C         142.2452  142.7389  169.3202 C.ar    1  UNL1        0.1401
     31 F         142.7736  142.9250  170.7116 F       1  UNL1       -0.2042
     32 C         143.1463  142.2206  168.2388 C.ar    1  UNL1        0.0296
     33 C         142.6179  142.0345  166.8474 C.ar    1  UNL1        0.0025
     34 O         141.7541  144.4254  164.4301 O.3     1  UNL1       -0.4754
     35 C         143.9800  143.3125  163.6836 C.3     1  UNL1        0.0512
     36 C         143.1651  144.5464  163.9355 C.3     1  UNL1        0.2055
     37 O         139.5655  139.9354  165.8618 O.3     1  UNL1       -0.4754
     38 C         138.3555  139.0564  165.7459 C.3     1  UNL1        0.2055
     39 C         137.6998  138.5161  166.9820 C.3     1  UNL1        0.0512
@<TRIPOS>BOND
     1    35    36    1
     2    36    34    1
     3    34    21    1
     4    21    22   ar
     5    22    23   ar
     6    23     1    1
     7     1     2    1
     8     2     3    1
     9     3     4    1
    10     4     5    1
    11     5     6    1
    12     6     7    1
    13     5     8    1
    14     8     9    1
    15     9    13    1
    16    13    14    1
    17    14    15   ar
    18    15    16   ar
    19    16    17   ar
    20    17    18    1
    21    17    19   ar
    22    19    20   ar
    23     9    10    1
    24    10    11    2
    25    10    12    1
    26    23    24   ar
    27    24    25   ar
    28    25    37    1
    29    37    38    1
    30    38    39    1
    31    25    26   ar
    32    26    27    1
    33    27    28   ar
    34    28    29   ar
    35    29    30   ar
    36    30    31    1
    37    30    32   ar
    38    32    33   ar
    39    26    21   ar
    40    33    27   ar
    41     7     2    1
    42    20    14   ar
    43    12     5    1
@<TRIPOS>MOLECULE
*****
 39 43 0 0 0
SMALL
GASTEIGER

@<TRIPOS>ATOM
      1 C         140.7680  141.7446  160.8099 C.3     1  UNL1        0.0993
      2 N         141.2613  140.7430  159.8082 N.3     1  UNL1       -0.2687
      3 C         142.6341  140.8838  159.2203 C.3     1  UNL1        0.0760
      4 C         143.1274  139.8822  158.2187 C.3     1  UNL1        0.0575
      5 C         142.2479  138.7398  157.8048 C.3     1  UNL1        0.1391
      6 C         140.8751  138.5989  158.3926 C.3     1  UNL1        0.0575
      7 C         140.3818  139.6005  159.3943 C.3     1  UNL1        0.0760
      8 C         141.4858  137.5516  157.2973 C.3     1  UNL1        0.0516
      9 C         142.3569  136.8279  156.3135 C.3     1  UNL1        0.1068
     10 C         143.6573  137.5689  156.2131 C.2     1  UNL1        0.3167
     11 O         144.8206  137.1941  155.3437 O.2     1  UNL1       -0.2501
     12 O         143.5899  138.7504  157.1347 O.3     1  UNL1       -0.4556
     13 C         141.9916  135.5821  155.5622 C.3     1  UNL1        0.0376
     14 C         142.7808  134.3234  155.7684 C.ar    1  UNL1       -0.0215
     15 C         143.5323  134.1106  157.0491 C.ar    1  UNL1       -0.0019
     16 C         144.3215  132.8518  157.2553 C.ar    1  UNL1        0.0293
     17 C         144.3594  131.8058  156.1809 C.ar    1  UNL1        0.1401
     18 F         145.1487  130.5470  156.3871 F       1  UNL1       -0.2042
     19 C         143.6080  132.0186  154.9001 C.ar    1  UNL1        0.0293
     20 C         142.8187  133.2774  154.6939 C.ar    1  UNL1       -0.0019
     21 C         140.3375  141.1213  164.7056 C.ar    1  UNL1        0.1411
     22 C         140.0073  141.2891  163.2520 C.ar    1  UNL1        0.0342
     23 C         141.0981  141.5768  162.2634 C.ar    1  UNL1       -0.0001
     24 C         142.5193  141.6966  162.7284 C.ar    1  UNL1        0.0342
     25 C         142.8494  141.5287  164.1820 C.ar    1  UNL1        0.1411
     26 C         141.7586  141.2411  165.1705 C.ar    1  UNL1        0.0679
     27 C         142.0888  141.0732  166.6240 C.ar    1  UNL1        0.0060
     28 C         142.3145  142.2798  167.4861 C.ar    1  UNL1        0.0025
     29 C         142.6447  142.1119  168.9397 C.ar    1  UNL1        0.0296
     30 C         142.7492  140.7375  169.5312 C.ar    1  UNL1        0.1401
     31 F         143.0793  140.5696  170.9847 F       1  UNL1       -0.2042
     32 C         142.5234  139.5309  168.6691 C.ar    1  UNL1        0.0296
     33 C         142.1933  139.6987  167.2156 C.ar    1  UNL1        0.0025
     34 O         139.2467  140.8336  165.6942 O.3     1  UNL1       -0.4754
     35 C         138.0080  138.7222  166.5645 C.3     1  UNL1        0.0512
     36 C         138.3030  139.6916  165.4586 C.3     1  UNL1        0.2055
     37 O         144.2705  141.6485  164.6469 O.3     1  UNL1       -0.4754
     38 C         145.2665  140.5828  164.2970 C.3     1  UNL1        0.2055
     39 C         144.8518  139.1413  164.2918 C.3     1  UNL1        0.0512
@<TRIPOS>BOND
     1    35    36    1
     2    36    34    1
     3    34    21    1
     4    21    22   ar
     5    22    23   ar
     6    23     1    1
     7     1     2    1
     8     2     3    1
     9     3     4    1
    10     4     5    1
    11     5     6    1
    12     6     7    1
    13     5     8    1
    14     8     9    1
    15     9    13    1
    16    13    14    1
    17    14    15   ar
    18    15    16   ar
    19    16    17   ar
    20    17    18    1
    21    17    19   ar
    22    19    20   ar
    23     9    10    1
    24    10    11    2
    25    10    12    1
    26    23    24   ar
    27    24    25   ar
    28    25    37    1
    29    37    38    1
    30    38    39    1
    31    25    26   ar
    32    26    27    1
    33    27    28   ar
    34    28    29   ar
    35    29    30   ar
    36    30    31    1
    37    30    32   ar
    38    32    33   ar
    39    26    21   ar
    40    33    27   ar
    41     7     2    1
    42    20    14   ar
    43    12     5    1
@<TRIPOS>MOLECULE
*****
 39 43 0 0 0
SMALL
GASTEIGER

@<TRIPOS>ATOM
      1 C         141.2250  139.2829  160.7428 C.3     1  UNL1        0.0993
      2 N         140.6378  139.2260  162.1220 N.3     1  UNL1       -0.2687
      3 C         139.4256  138.3832  162.3869 C.3     1  UNL1        0.0760
      4 C         138.8385  138.3263  163.7660 C.3     1  UNL1        0.0575
      5 C         139.4636  139.1123  164.8802 C.3     1  UNL1        0.1391
      6 C         140.6758  139.9551  164.6154 C.3     1  UNL1        0.0575
      7 C         141.2629  140.0119  163.2363 C.3     1  UNL1        0.0760
      8 C         139.9766  139.8396  166.0876 C.3     1  UNL1        0.0516
      9 C         139.0904  139.4950  167.2478 C.3     1  UNL1        0.1068
     10 C         138.0296  138.5546  166.7574 C.2     1  UNL1        0.3167
     11 O         136.9311  137.9558  167.5848 O.2     1  UNL1       -0.2501
     12 O         138.2602  138.3181  165.2942 O.3     1  UNL1       -0.4556
     13 C         139.2389  140.0017  168.6518 C.3     1  UNL1        0.0376
     14 C         140.4860  140.7288  169.0587 C.ar    1  UNL1       -0.0215
     15 C         141.7241  139.9571  169.4077 C.ar    1  UNL1       -0.0019
     16 C         142.9714  140.6842  169.8146 C.ar    1  UNL1        0.0293
     17 C         142.9806  142.1831  169.8726 C.ar    1  UNL1        0.1401
     18 F         144.2279  142.9103  170.2796 F       1  UNL1       -0.2042
     19 C         141.7425  142.9548  169.5236 C.ar    1  UNL1        0.0293
     20 C         140.4953  142.2276  169.1167 C.ar    1  UNL1       -0.0019
     21 C         139.9236  142.8208  159.5022 C.ar    1  UNL1        0.1411
     22 C         140.2218  141.6543  160.3969 C.ar    1  UNL1        0.0342
     23 C         140.9268  140.4493  159.8482 C.ar    1  UNL1       -0.0001
     24 C         141.3334  140.4108  158.4049 C.ar    1  UNL1        0.0342
     25 C         141.0352  141.5773  157.5103 C.ar    1  UNL1        0.1411
     26 C         140.3303  142.7823  158.0589 C.ar    1  UNL1        0.0679
     27 C         140.0320  143.9487  157.1643 C.ar    1  UNL1        0.0060
     28 C         140.9527  145.1327  157.1436 C.ar    1  UNL1        0.0025
     29 C         140.6544  146.2992  156.2489 C.ar    1  UNL1        0.0296
     30 C         139.4354  146.2817  155.3750 C.ar    1  UNL1        0.1401
     31 F         139.1371  147.4481  154.4804 F       1  UNL1       -0.2042
     32 C         138.5146  145.0977  155.3958 C.ar    1  UNL1        0.0296
     33 C         138.8129  143.9313  156.2904 C.ar    1  UNL1        0.0025
     34 O         139.2187  144.0258  160.0509 O.3     1  UNL1       -0.4754
     35 C         141.4467  144.9846  160.9819 C.3     1  UNL1        0.0512
     36 C         139.9469  144.9720  160.9589 C.3     1  UNL1        0.2055
     37 O         141.4419  141.5387  156.0670 O.3     1  UNL1       -0.4754
     38 C         142.8073  142.0077  155.6597 C.3     1  UNL1        0.2055
     39 C         143.7216  142.6264  156.6751 C.3     1  UNL1        0.0512
@<TRIPOS>BOND
     1    35    36    1
     2    36    34    1
     3    34    21    1
     4    21    22   ar
     5    22    23   ar
     6    23     1    1
     7     1     2    1
     8     2     3    1
     9     3     4    1
    10     4     5    1
    11     5     6    1
    12     6     7    1
    13     5     8    1
    14     8     9    1
    15     9    13    1
    16    13    14    1
    17    14    15   ar
    18    15    16   ar
    19    16    17   ar
    20    17    18    1
    21    17    19   ar
    22    19    20   ar
    23     9    10    1
    24    10    11    2
    25    10    12    1
    26    23    24   ar
    27    24    25   ar
    28    25    37    1
    29    37    38    1
    30    38    39    1
    31    25    26   ar
    32    26    27    1
    33    27    28   ar
    34    28    29   ar
    35    29    30   ar
    36    30    31    1
    37    30    32   ar
    38    32    33   ar
    39    26    21   ar
    40    33    27   ar
    41     7     2    1
    42    20    14   ar
    43    12     5    1
