@<TRIPOS>MOLECULE
*****
 34 38 0 0 0
SMALL
GASTEIGER

@<TRIPOS>ATOM
      1 C         138.9441  139.8324  165.7048 C.3     1  UNL1        0.0002
      2 C         138.2537  138.6041  166.2191 C.3     1  UNL1        0.0001
      3 C         138.9071  139.5543  167.1783 C.3     1  UNL1        0.0037
      4 N         140.2039  142.4417  162.2618 N.pl3   1  UNL1       -0.2782
      5 C         140.9534  141.1765  162.5574 C.3     1  UNL1        0.0936
      6 C         140.5334  140.3067  163.7051 C.3     1  UNL1        0.0216
      7 C         139.3640  140.7022  164.5572 C.3     1  UNL1        0.0034
      8 C         138.6145  141.9674  164.2615 C.3     1  UNL1        0.0216
      9 C         139.0345  142.8372  163.1138 C.3     1  UNL1        0.0936
     10 C         141.4637  145.0510  158.8188 C.ar    1  UNL1        0.0162
     11 C         142.2621  143.8294  159.1654 C.ar    1  UNL1        0.0991
     12 N         141.8422  142.9596  160.3131 N.ar    1  UNL1       -0.2124
     13 C         140.6238  143.3115  161.1141 C.ar    1  UNL1        0.2202
     14 N         139.8254  144.5330  160.7675 N.ar    1  UNL1       -0.2124
     15 C         140.2453  145.4028  159.6198 C.ar    1  UNL1        0.0991
     16 C         141.9721  145.3467  156.2882 C.3     1  UNL1        0.0051
     17 C         141.8836  145.9207  157.6711 C.3     1  UNL1        0.0295
     18 C         139.2630  139.9423  168.5829 C.3     1  UNL1        0.0473
     19 C         140.6664  140.3558  168.9140 C.3     1  UNL1        0.2054
     20 O         141.3025  141.5019  168.1847 O.3     1  UNL1       -0.4754
     21 C         142.2569  141.2369  167.0582 C.ar    1  UNL1        0.1408
     22 C         142.5858  139.8259  166.6700 C.ar    1  UNL1        0.0367
     23 C         143.5401  139.5609  165.5436 C.ar    1  UNL1        0.0016
     24 C         144.1656  140.7070  164.8053 C.ar    1  UNL1        0.0146
     25 C         143.8368  142.1181  165.1934 C.ar    1  UNL1        0.1396
     26 F         144.4623  143.2643  164.4551 F       1  UNL1       -0.2044
     27 C         142.8824  142.3831  166.3199 C.ar    1  UNL1        0.0662
     28 C         145.1200  140.4421  163.6787 C.3     1  UNL1        0.1138
     29 C         144.6631  140.5913  162.2579 C.2     1  UNL1        0.2301
     30 O         144.8851  141.8842  161.5304 O.2     1  UNL1       -0.2745
     31 N         143.9841  139.4476  161.5644 N.am    1  UNL1       -0.2791
     32 C         143.4081  139.2276  160.1970 C.3     1  UNL1        0.0952
     33 C         143.0239  137.8301  160.5837 C.3     1  UNL1        0.0430
     34 C         143.6000  138.0501  161.9511 C.3     1  UNL1        0.0952
@<TRIPOS>BOND
     1    16    17    1
     2    17    10    1
     3    10    11   ar
     4    11    12   ar
     5    12    13   ar
     6    13     4    1
     7     4     5    1
     8     5     6    1
     9     6     7    1
    10     1     7    1
    11     1     2    1
    12     2     3    1
    13     3    18    1
    14    18    19    1
    15    19    20    1
    16    20    21    1
    17    21    22   ar
    18    22    23   ar
    19    23    24   ar
    20    24    28    1
    21    28    29    1
    22    29    30    2
    23    29    31   am
    24    31    32    1
    25    32    33    1
    26    33    34    1
    27    24    25   ar
    28    25    26    1
    29    25    27   ar
    30     7     8    1
    31     8     9    1
    32    13    14   ar
    33    14    15   ar
    34    15    10   ar
    35     9     4    1
    36     3     1    1
    37    27    21   ar
    38    34    31    1
@<TRIPOS>MOLECULE
*****
 34 38 0 0 0
SMALL
GASTEIGER

@<TRIPOS>ATOM
      1 C         138.4143  138.6955  166.4054 C.3     1  UNL1        0.0002
      2 C         137.3560  138.2575  167.3740 C.3     1  UNL1        0.0001
      3 C         138.4135  139.2291  167.8072 C.3     1  UNL1        0.0037
      4 N         140.2488  138.5297  162.2997 N.pl3   1  UNL1       -0.2782
      5 C         140.6119  137.4974  163.3256 C.3     1  UNL1        0.0936
      6 C         140.0004  137.5527  164.6942 C.3     1  UNL1        0.0216
      7 C         139.0258  138.6402  165.0369 C.3     1  UNL1        0.0034
      8 C         138.6627  139.6725  164.0109 C.3     1  UNL1        0.0216
      9 C         139.2743  139.6172  162.6424 C.3     1  UNL1        0.0936
     10 C         142.0834  138.3639  158.1940 C.ar    1  UNL1        0.0162
     11 C         140.7685  139.0555  158.4005 C.ar    1  UNL1        0.0991
     12 N         140.1569  139.1107  159.7691 N.ar    1  UNL1       -0.2124
     13 C         140.8603  138.4744  160.9311 C.ar    1  UNL1        0.2202
     14 N         142.1752  137.7829  160.7246 N.ar    1  UNL1       -0.2124
     15 C         142.7868  137.7276  159.3560 C.ar    1  UNL1        0.0991
     16 C         143.7200  139.3260  156.4204 C.3     1  UNL1        0.0051
     17 C         142.6949  138.3087  156.8254 C.3     1  UNL1        0.0295
     18 C         139.0234  140.0982  168.8667 C.3     1  UNL1        0.0473
     19 C         140.4051  140.6514  168.6794 C.3     1  UNL1        0.2054
     20 O         141.5527  139.7255  168.4042 O.3     1  UNL1       -0.4754
     21 C         142.1929  139.7070  167.0478 C.ar    1  UNL1        0.1408
     22 C         143.2749  138.7140  166.7426 C.ar    1  UNL1        0.0367
     23 C         143.9151  138.6955  165.3862 C.ar    1  UNL1        0.0016
     24 C         143.4733  139.6700  164.3350 C.ar    1  UNL1        0.0146
     25 C         142.3912  140.6630  164.6402 C.ar    1  UNL1        0.1396
     26 F         141.9494  141.6375  163.5889 F       1  UNL1       -0.2044
     27 C         141.7511  140.6815  165.9965 C.ar    1  UNL1        0.0662
     28 C         144.1135  139.6515  162.9786 C.3     1  UNL1        0.1138
     29 C         144.8232  140.8702  162.4676 C.2     1  UNL1        0.2301
     30 O         146.0081  141.4143  163.2093 O.2     1  UNL1       -0.2745
     31 N         144.3481  141.5447  161.2149 N.am    1  UNL1       -0.2791
     32 C         144.7856  142.7414  160.4233 C.3     1  UNL1        0.0952
     33 C         143.6761  142.4987  159.4434 C.3     1  UNL1        0.0430
     34 C         143.2386  141.3020  160.2350 C.3     1  UNL1        0.0952
@<TRIPOS>BOND
     1    16    17    1
     2    17    10    1
     3    10    11   ar
     4    11    12   ar
     5    12    13   ar
     6    13     4    1
     7     4     5    1
     8     5     6    1
     9     6     7    1
    10     1     7    1
    11     1     2    1
    12     2     3    1
    13     3    18    1
    14    18    19    1
    15    19    20    1
    16    20    21    1
    17    21    22   ar
    18    22    23   ar
    19    23    24   ar
    20    24    28    1
    21    28    29    1
    22    29    30    2
    23    29    31   am
    24    31    32    1
    25    32    33    1
    26    33    34    1
    27    24    25   ar
    28    25    26    1
    29    25    27   ar
    30     7     8    1
    31     8     9    1
    32    13    14   ar
    33    14    15   ar
    34    15    10   ar
    35     9     4    1
    36     3     1    1
    37    27    21   ar
    38    34    31    1
@<TRIPOS>MOLECULE
*****
 34 38 0 0 0
SMALL
GASTEIGER

@<TRIPOS>ATOM
      1 C         141.8257  138.4825  163.9095 C.3     1  UNL1        0.0002
      2 C         142.0240  138.0514  165.3324 C.3     1  UNL1        0.0001
      3 C         140.6553  138.0102  164.7200 C.3     1  UNL1        0.0037
      4 N         143.5097  140.0472  160.0409 N.pl3   1  UNL1       -0.2782
      5 C         144.1549  138.8760  160.7204 C.3     1  UNL1        0.0936
      6 C         143.5935  138.3544  162.0099 C.3     1  UNL1        0.0216
      7 C         142.3870  139.0041  162.6199 C.3     1  UNL1        0.0034
      8 C         141.7419  140.1754  161.9404 C.3     1  UNL1        0.0216
      9 C         142.3032  140.6970  160.6509 C.3     1  UNL1        0.0936
     10 C         145.1936  141.6120  156.1723 C.ar    1  UNL1        0.0162
     11 C         145.1110  142.5091  157.3716 C.ar    1  UNL1        0.0991
     12 N         144.5497  141.9875  158.6611 N.ar    1  UNL1       -0.2124
     13 C         144.0710  140.5688  158.7514 C.ar    1  UNL1        0.2202
     14 N         144.1536  139.6717  157.5521 N.ar    1  UNL1       -0.2124
     15 C         144.7149  140.1933  156.2625 C.ar    1  UNL1        0.0991
     16 C         146.9583  143.0289  154.8963 C.3     1  UNL1        0.0051
     17 C         145.7549  142.1336  154.8828 C.3     1  UNL1        0.0295
     18 C         139.1894  137.7138  164.8344 C.3     1  UNL1        0.0473
     19 C         138.3714  138.3759  165.9034 C.3     1  UNL1        0.2054
     20 O         137.9514  139.8074  165.7477 O.3     1  UNL1       -0.4754
     21 C         138.9613  140.8479  165.3637 C.ar    1  UNL1        0.1408
     22 C         140.0573  141.2177  166.3187 C.ar    1  UNL1        0.0367
     23 C         141.0673  142.2582  165.9348 C.ar    1  UNL1        0.0016
     24 C         140.9812  142.9289  164.5959 C.ar    1  UNL1        0.0146
     25 C         139.8852  142.5591  163.6409 C.ar    1  UNL1        0.1396
     26 F         139.7992  143.2298  162.3019 F       1  UNL1       -0.2044
     27 C         138.8753  141.5186  164.0248 C.ar    1  UNL1        0.0662
     28 C         141.9912  143.9694  164.2120 C.3     1  UNL1        0.1138
     29 C         143.0062  143.6728  163.1481 C.2     1  UNL1        0.2301
     30 O         142.9793  144.4305  161.8537 O.2     1  UNL1       -0.2745
     31 N         144.0481  142.6186  163.3785 N.am    1  UNL1       -0.2791
     32 C         145.1882  142.0614  162.5787 C.3     1  UNL1        0.0952
     33 C         145.5214  141.1277  163.7045 C.3     1  UNL1        0.0430
     34 C         144.3813  141.6849  164.5043 C.3     1  UNL1        0.0952
@<TRIPOS>BOND
     1    16    17    1
     2    17    10    1
     3    10    11   ar
     4    11    12   ar
     5    12    13   ar
     6    13     4    1
     7     4     5    1
     8     5     6    1
     9     6     7    1
    10     1     7    1
    11     1     2    1
    12     2     3    1
    13     3    18    1
    14    18    19    1
    15    19    20    1
    16    20    21    1
    17    21    22   ar
    18    22    23   ar
    19    23    24   ar
    20    24    28    1
    21    28    29    1
    22    29    30    2
    23    29    31   am
    24    31    32    1
    25    32    33    1
    26    33    34    1
    27    24    25   ar
    28    25    26    1
    29    25    27   ar
    30     7     8    1
    31     8     9    1
    32    13    14   ar
    33    14    15   ar
    34    15    10   ar
    35     9     4    1
    36     3     1    1
    37    27    21   ar
    38    34    31    1
@<TRIPOS>MOLECULE
*****
 34 38 0 0 0
SMALL
GASTEIGER

@<TRIPOS>ATOM
      1 C         138.7851  139.0569  166.2973 C.3     1  UNL1        0.0002
      2 C         137.7541  138.8232  167.3614 C.3     1  UNL1        0.0001
      3 C         139.0136  139.5694  167.6883 C.3     1  UNL1        0.0037
      4 N         140.1753  138.5738  162.0448 N.pl3   1  UNL1       -0.2782
      5 C         140.3822  137.4637  163.0321 C.3     1  UNL1        0.0936
      6 C         139.9188  137.6247  164.4496 C.3     1  UNL1        0.0216
      7 C         139.2485  138.8958  164.8798 C.3     1  UNL1        0.0034
      8 C         139.0417  140.0059  163.8924 C.3     1  UNL1        0.0216
      9 C         139.5051  139.8448  162.4749 C.3     1  UNL1        0.0936
     10 C         141.5655  138.0907  157.7922 C.ar    1  UNL1        0.0162
     11 C         140.1174  138.3520  158.0828 C.ar    1  UNL1        0.0991
     12 N         139.6540  138.5130  159.5003 N.ar    1  UNL1       -0.2124
     13 C         140.6387  138.4127  160.6273 C.ar    1  UNL1        0.2202
     14 N         142.0869  138.1514  160.3367 N.ar    1  UNL1       -0.2124
     15 C         142.5503  137.9904  158.9192 C.ar    1  UNL1        0.0991
     16 C         142.0748  136.5663  155.7510 C.3     1  UNL1        0.0051
     17 C         142.0289  137.9296  156.3747 C.3     1  UNL1        0.0295
     18 C         139.8726  140.2961  168.6803 C.3     1  UNL1        0.0473
     19 C         141.2265  139.7575  169.0366 C.3     1  UNL1        0.2054
     20 O         142.4575  140.3599  168.4271 O.3     1  UNL1       -0.4754
     21 C         142.4461  140.7997  166.9930 C.ar    1  UNL1        0.1408
     22 C         142.1117  142.2204  166.6469 C.ar    1  UNL1        0.0367
     23 C         142.1003  142.6603  165.2129 C.ar    1  UNL1        0.0016
     24 C         142.4233  141.6794  164.1250 C.ar    1  UNL1        0.0146
     25 C         142.7578  140.2587  164.4711 C.ar    1  UNL1        0.1396
     26 F         143.0809  139.2779  163.3831 F       1  UNL1       -0.2044
     27 C         142.7692  139.8189  165.9051 C.ar    1  UNL1        0.0662
     28 C         142.4120  142.1193  162.6909 C.3     1  UNL1        0.1138
     29 C         142.2910  143.5759  162.3542 C.2     1  UNL1        0.2301
     30 O         143.5105  144.3611  161.9717 O.2     1  UNL1       -0.2745
     31 N         140.9505  144.2475  162.3999 N.am    1  UNL1       -0.2791
     32 C         140.4511  145.6375  162.1385 C.3     1  UNL1        0.0952
     33 C         139.0547  145.1971  162.4645 C.3     1  UNL1        0.0430
     34 C         139.5541  143.8070  162.7258 C.3     1  UNL1        0.0952
@<TRIPOS>BOND
     1    16    17    1
     2    17    10    1
     3    10    11   ar
     4    11    12   ar
     5    12    13   ar
     6    13     4    1
     7     4     5    1
     8     5     6    1
     9     6     7    1
    10     1     7    1
    11     1     2    1
    12     2     3    1
    13     3    18    1
    14    18    19    1
    15    19    20    1
    16    20    21    1
    17    21    22   ar
    18    22    23   ar
    19    23    24   ar
    20    24    28    1
    21    28    29    1
    22    29    30    2
    23    29    31   am
    24    31    32    1
    25    32    33    1
    26    33    34    1
    27    24    25   ar
    28    25    26    1
    29    25    27   ar
    30     7     8    1
    31     8     9    1
    32    13    14   ar
    33    14    15   ar
    34    15    10   ar
    35     9     4    1
    36     3     1    1
    37    27    21   ar
    38    34    31    1
@<TRIPOS>MOLECULE
*****
 34 38 0 0 0
SMALL
GASTEIGER

@<TRIPOS>ATOM
      1 C         142.9065  139.6597  163.4748 C.3     1  UNL1        0.0002
      2 C         143.8715  139.1995  164.5269 C.3     1  UNL1        0.0001
      3 C         142.6197  138.4162  164.2631 C.3     1  UNL1        0.0037
      4 N         141.7317  142.6105  160.2870 N.pl3   1  UNL1       -0.2782
      5 C         140.6774  141.9632  161.1350 C.3     1  UNL1        0.0936
      6 C         141.0689  140.9795  162.1976 C.3     1  UNL1        0.0216
      7 C         142.5149  140.6433  162.4122 C.3     1  UNL1        0.0034
      8 C         143.5693  141.2907  161.5642 C.3     1  UNL1        0.0216
      9 C         143.1777  142.2743  160.5016 C.3     1  UNL1        0.0936
     10 C         140.5569  145.5614  157.0991 C.ar    1  UNL1        0.0162
     11 C         139.7363  144.3246  157.3154 C.ar    1  UNL1        0.0991
     12 N         140.1279  143.3410  158.3780 N.ar    1  UNL1       -0.2124
     13 C         141.3401  143.5942  159.2243 C.ar    1  UNL1        0.2202
     14 N         142.1607  144.8310  159.0081 N.ar    1  UNL1       -0.2124
     15 C         141.7691  145.8146  157.9455 C.ar    1  UNL1        0.0991
     16 C         138.7652  146.5500  155.4984 C.3     1  UNL1        0.0051
     17 C         140.1653  146.5450  156.0365 C.3     1  UNL1        0.0295
     18 C         141.7315  137.2461  164.5660 C.3     1  UNL1        0.0473
     19 C         140.3699  137.1569  163.9429 C.3     1  UNL1        0.2054
     20 O         139.1781  137.7161  164.6618 O.3     1  UNL1       -0.4754
     21 C         138.9167  139.1932  164.6444 C.ar    1  UNL1        0.1408
     22 C         139.5357  140.0766  165.6867 C.ar    1  UNL1        0.0367
     23 C         139.2744  141.5535  165.6694 C.ar    1  UNL1        0.0016
     24 C         138.3940  142.1470  164.6098 C.ar    1  UNL1        0.0146
     25 C         137.7750  141.2635  163.5676 C.ar    1  UNL1        0.1396
     26 F         136.8947  141.8571  162.5080 F       1  UNL1       -0.2044
     27 C         138.0364  139.7866  163.5849 C.ar    1  UNL1        0.0662
     28 C         138.1327  143.6240  164.5925 C.3     1  UNL1        0.1138
     29 C         138.6942  144.4721  163.4901 C.2     1  UNL1        0.2301
     30 O         137.7778  145.0765  162.4678 O.2     1  UNL1       -0.2745
     31 N         140.1721  144.7158  163.4099 N.am    1  UNL1       -0.2791
     32 C         141.0723  145.4811  162.4858 C.3     1  UNL1        0.0952
     33 C         142.2621  145.0604  163.2965 C.3     1  UNL1        0.0430
     34 C         141.3619  144.2951  164.2207 C.3     1  UNL1        0.0952
@<TRIPOS>BOND
     1    16    17    1
     2    17    10    1
     3    10    11   ar
     4    11    12   ar
     5    12    13   ar
     6    13     4    1
     7     4     5    1
     8     5     6    1
     9     6     7    1
    10     1     7    1
    11     1     2    1
    12     2     3    1
    13     3    18    1
    14    18    19    1
    15    19    20    1
    16    20    21    1
    17    21    22   ar
    18    22    23   ar
    19    23    24   ar
    20    24    28    1
    21    28    29    1
    22    29    30    2
    23    29    31   am
    24    31    32    1
    25    32    33    1
    26    33    34    1
    27    24    25   ar
    28    25    26    1
    29    25    27   ar
    30     7     8    1
    31     8     9    1
    32    13    14   ar
    33    14    15   ar
    34    15    10   ar
    35     9     4    1
    36     3     1    1
    37    27    21   ar
    38    34    31    1
@<TRIPOS>MOLECULE
*****
 34 38 0 0 0
SMALL
GASTEIGER

@<TRIPOS>ATOM
      1 C         143.1304  142.1743  168.2830 C.3     1  UNL1        0.0002
      2 C         143.8671  142.3711  169.5747 C.3     1  UNL1        0.0001
      3 C         142.9188  141.2193  169.4201 C.3     1  UNL1        0.0037
      4 N         142.2209  143.4877  164.0761 N.pl3   1  UNL1       -0.2782
      5 C         141.1033  143.2760  165.0539 C.3     1  UNL1        0.0936
      6 C         141.4065  142.8382  166.4562 C.3     1  UNL1        0.0216
      7 C         142.8272  142.6121  166.8807 C.3     1  UNL1        0.0034
      8 C         143.9448  142.8238  165.9029 C.3     1  UNL1        0.0216
      9 C         143.6416  143.2616  164.5006 C.3     1  UNL1        0.0936
     10 C         141.3113  144.8010  159.8693 C.ar    1  UNL1        0.0162
     11 C         142.3586  143.7567  160.1191 C.ar    1  UNL1        0.0991
     12 N         142.6618  143.3189  161.5213 N.ar    1  UNL1       -0.2124
     13 C         141.9177  143.9254  162.6739 C.ar    1  UNL1        0.2202
     14 N         140.8703  144.9697  162.4241 N.ar    1  UNL1       -0.2124
     15 C         140.5671  145.4075  161.0218 C.ar    1  UNL1        0.0991
     16 C         139.9544  144.5279  157.6706 C.3     1  UNL1        0.0051
     17 C         141.0081  145.2388  158.4670 C.3     1  UNL1        0.0295
     18 C         142.2491  140.0029  169.9874 C.3     1  UNL1        0.0473
     19 C         140.7702  139.8146  169.8212 C.3     1  UNL1        0.2054
     20 O         140.0612  140.4378  168.6554 O.3     1  UNL1       -0.4754
     21 C         139.8915  139.6655  167.3807 C.ar    1  UNL1        0.1408
     22 C         138.5276  139.2061  166.9581 C.ar    1  UNL1        0.0367
     23 C         138.3579  138.4339  165.6834 C.ar    1  UNL1        0.0016
     24 C         139.5521  138.1211  164.8314 C.ar    1  UNL1        0.0146
     25 C         140.9160  138.5805  165.2540 C.ar    1  UNL1        0.1396
     26 F         142.1102  138.2676  164.4019 F       1  UNL1       -0.2044
     27 C         141.0857  139.3527  166.5287 C.ar    1  UNL1        0.0662
     28 C         139.3824  137.3488  163.5566 C.3     1  UNL1        0.1138
     29 C         139.0756  138.0703  162.2779 C.2     1  UNL1        0.2301
     30 O         137.6805  138.5479  162.0022 O.2     1  UNL1       -0.2745
     31 N         140.1637  138.3142  161.2747 N.am    1  UNL1       -0.2791
     32 C         140.2384  138.9762  159.9308 C.3     1  UNL1        0.0952
     33 C         141.7026  138.6592  159.8560 C.3     1  UNL1        0.0430
     34 C         141.6279  137.9972  161.2000 C.3     1  UNL1        0.0952
@<TRIPOS>BOND
     1    16    17    1
     2    17    10    1
     3    10    11   ar
     4    11    12   ar
     5    12    13   ar
     6    13     4    1
     7     4     5    1
     8     5     6    1
     9     6     7    1
    10     1     7    1
    11     1     2    1
    12     2     3    1
    13     3    18    1
    14    18    19    1
    15    19    20    1
    16    20    21    1
    17    21    22   ar
    18    22    23   ar
    19    23    24   ar
    20    24    28    1
    21    28    29    1
    22    29    30    2
    23    29    31   am
    24    31    32    1
    25    32    33    1
    26    33    34    1
    27    24    25   ar
    28    25    26    1
    29    25    27   ar
    30     7     8    1
    31     8     9    1
    32    13    14   ar
    33    14    15   ar
    34    15    10   ar
    35     9     4    1
    36     3     1    1
    37    27    21   ar
    38    34    31    1
@<TRIPOS>MOLECULE
*****
 34 38 0 0 0
SMALL
GASTEIGER

@<TRIPOS>ATOM
      1 C         143.7536  142.6933  159.7561 C.3     1  UNL1        0.0002
      2 C         144.5352  142.5916  158.4799 C.3     1  UNL1        0.0001
      3 C         143.2757  143.4051  158.5253 C.3     1  UNL1        0.0037
      4 N         143.2276  141.6365  164.0985 N.pl3   1  UNL1       -0.2782
      5 C         144.3386  142.5528  163.6788 C.3     1  UNL1        0.0936
      6 C         144.5139  142.9051  162.2314 C.3     1  UNL1        0.0216
      7 C         143.5783  142.3410  161.2036 C.3     1  UNL1        0.0034
      8 C         142.4673  141.4247  161.6232 C.3     1  UNL1        0.0216
      9 C         142.2920  141.0725  163.0707 C.3     1  UNL1        0.0936
     10 C         142.7017  140.5798  168.4409 C.ar    1  UNL1        0.0162
     11 C         142.5785  139.5166  167.3901 C.ar    1  UNL1        0.0991
     12 N         142.7538  139.8688  165.9426 N.ar    1  UNL1       -0.2124
     13 C         143.0523  141.2843  165.5460 C.ar    1  UNL1        0.2202
     14 N         143.1755  142.3475  166.5969 N.ar    1  UNL1       -0.2124
     15 C         143.0002  141.9952  168.0443 C.ar    1  UNL1        0.0991
     16 C         141.1611  139.9118  170.4234 C.3     1  UNL1        0.0051
     17 C         142.5264  140.2275  169.8884 C.3     1  UNL1        0.0295
     18 C         142.2727  144.2857  157.8409 C.3     1  UNL1        0.0473
     19 C         141.4077  145.2065  158.6496 C.3     1  UNL1        0.2054
     20 O         141.7324  145.4678  160.0905 O.3     1  UNL1       -0.4754
     21 C         140.9320  144.8043  161.1719 C.ar    1  UNL1        0.1408
     22 C         141.3234  144.9794  162.6093 C.ar    1  UNL1        0.0367
     23 C         140.5232  144.3160  163.6907 C.ar    1  UNL1        0.0016
     24 C         139.3315  143.4775  163.3347 C.ar    1  UNL1        0.0146
     25 C         138.9401  143.3024  161.8972 C.ar    1  UNL1        0.1396
     26 F         137.7484  142.4638  161.5412 F       1  UNL1       -0.2044
     27 C         139.7404  143.9658  160.8159 C.ar    1  UNL1        0.0662
     28 C         138.5312  142.8140  164.4161 C.3     1  UNL1        0.1138
     29 C         139.0931  141.6302  165.1459 C.2     1  UNL1        0.2301
     30 O         139.7539  141.8159  166.4797 O.2     1  UNL1       -0.2745
     31 N         138.9943  140.2607  164.5421 N.am    1  UNL1       -0.2791
     32 C         139.4237  138.8848  164.9576 C.3     1  UNL1        0.0952
     33 C         138.8546  138.3240  163.6880 C.3     1  UNL1        0.0430
     34 C         138.4253  139.6999  163.2726 C.3     1  UNL1        0.0952
@<TRIPOS>BOND
     1    16    17    1
     2    17    10    1
     3    10    11   ar
     4    11    12   ar
     5    12    13   ar
     6    13     4    1
     7     4     5    1
     8     5     6    1
     9     6     7    1
    10     1     7    1
    11     1     2    1
    12     2     3    1
    13     3    18    1
    14    18    19    1
    15    19    20    1
    16    20    21    1
    17    21    22   ar
    18    22    23   ar
    19    23    24   ar
    20    24    28    1
    21    28    29    1
    22    29    30    2
    23    29    31   am
    24    31    32    1
    25    32    33    1
    26    33    34    1
    27    24    25   ar
    28    25    26    1
    29    25    27   ar
    30     7     8    1
    31     8     9    1
    32    13    14   ar
    33    14    15   ar
    34    15    10   ar
    35     9     4    1
    36     3     1    1
    37    27    21   ar
    38    34    31    1
@<TRIPOS>MOLECULE
*****
 34 38 0 0 0
SMALL
GASTEIGER

@<TRIPOS>ATOM
      1 C         138.3848  138.7932  166.3396 C.3     1  UNL1        0.0002
      2 C         137.3627  138.3713  167.3532 C.3     1  UNL1        0.0001
      3 C         138.5036  139.2554  167.7616 C.3     1  UNL1        0.0037
      4 N         139.9492  138.7234  162.1208 N.pl3   1  UNL1       -0.2782
      5 C         140.3226  137.6301  163.0774 C.3     1  UNL1        0.0936
      6 C         139.8011  137.6533  164.4837 C.3     1  UNL1        0.0216
      7 C         138.9062  138.7700  164.9333 C.3     1  UNL1        0.0034
      8 C         138.5328  139.8633  163.9768 C.3     1  UNL1        0.0216
      9 C         139.0543  139.8401  162.5705 C.3     1  UNL1        0.0936
     10 C         141.5136  138.6536  157.9021 C.ar    1  UNL1        0.0162
     11 C         140.0614  138.3889  158.1679 C.ar    1  UNL1        0.0991
     12 N         139.5399  138.4121  159.5742 N.ar    1  UNL1       -0.2124
     13 C         140.4707  138.7002  160.7146 C.ar    1  UNL1        0.2202
     14 N         141.9230  138.9649  160.4488 N.ar    1  UNL1       -0.2124
     15 C         142.4444  138.9417  159.0425 C.ar    1  UNL1        0.0991
     16 C         143.3669  139.2436  156.1796 C.3     1  UNL1        0.0051
     17 C         142.0351  138.6304  156.4959 C.3     1  UNL1        0.0295
     18 C         139.2309  140.0326  168.8184 C.3     1  UNL1        0.0473
     19 C         140.6521  140.4563  168.5933 C.3     1  UNL1        0.2054
     20 O         141.3010  140.2269  167.2606 O.3     1  UNL1       -0.4754
     21 C         141.1627  141.2506  166.1729 C.ar    1  UNL1        0.1408
     22 C         141.9205  141.0874  164.8887 C.ar    1  UNL1        0.0367
     23 C         141.7823  142.1110  163.8010 C.ar    1  UNL1        0.0016
     24 C         140.8862  143.2978  163.9975 C.ar    1  UNL1        0.0146
     25 C         140.1284  143.4609  165.2817 C.ar    1  UNL1        0.1396
     26 F         139.2323  144.6477  165.4781 F       1  UNL1       -0.2044
     27 C         140.2666  142.4373  166.3694 C.ar    1  UNL1        0.0662
     28 C         140.7479  144.3214  162.9098 C.3     1  UNL1        0.1138
     29 C         139.6571  144.1882  161.8888 C.2     1  UNL1        0.2301
     30 O         138.3717  144.9417  162.0619 O.2     1  UNL1       -0.2745
     31 N         139.8518  143.3014  160.6948 N.am    1  UNL1       -0.2791
     32 C         139.0193  142.9276  159.5043 C.3     1  UNL1        0.0952
     33 C         140.1271  142.0474  159.0062 C.3     1  UNL1        0.0430
     34 C         140.9595  142.4212  160.1967 C.3     1  UNL1        0.0952
@<TRIPOS>BOND
     1    16    17    1
     2    17    10    1
     3    10    11   ar
     4    11    12   ar
     5    12    13   ar
     6    13     4    1
     7     4     5    1
     8     5     6    1
     9     6     7    1
    10     1     7    1
    11     1     2    1
    12     2     3    1
    13     3    18    1
    14    18    19    1
    15    19    20    1
    16    20    21    1
    17    21    22   ar
    18    22    23   ar
    19    23    24   ar
    20    24    28    1
    21    28    29    1
    22    29    30    2
    23    29    31   am
    24    31    32    1
    25    32    33    1
    26    33    34    1
    27    24    25   ar
    28    25    26    1
    29    25    27   ar
    30     7     8    1
    31     8     9    1
    32    13    14   ar
    33    14    15   ar
    34    15    10   ar
    35     9     4    1
    36     3     1    1
    37    27    21   ar
    38    34    31    1
@<TRIPOS>MOLECULE
*****
 34 38 0 0 0
SMALL
GASTEIGER

@<TRIPOS>ATOM
      1 C         139.4526  143.0579  159.8069 C.3     1  UNL1        0.0002
      2 C         139.9290  143.9526  158.7013 C.3     1  UNL1        0.0001
      3 C         138.8909  142.9060  158.4244 C.3     1  UNL1        0.0037
      4 N         139.6004  141.7714  164.1165 N.pl3   1  UNL1       -0.2782
      5 C         140.8196  141.6406  163.2526 C.3     1  UNL1        0.0936
      6 C         140.7703  142.0695  161.8160 C.3     1  UNL1        0.0216
      7 C         139.5019  142.6291  161.2435 C.3     1  UNL1        0.0034
      8 C         138.2827  142.7598  162.1074 C.3     1  UNL1        0.0216
      9 C         138.3320  142.3310  163.5440 C.3     1  UNL1        0.0936
     10 C         139.7482  140.4848  168.4262 C.ar    1  UNL1        0.0162
     11 C         138.9584  139.6865  167.4318 C.ar    1  UNL1        0.0991
     12 N         138.9091  140.1154  165.9953 N.ar    1  UNL1       -0.2124
     13 C         139.6497  141.3425  165.5531 C.ar    1  UNL1        0.2202
     14 N         140.4395  142.1408  166.5474 N.ar    1  UNL1       -0.2124
     15 C         140.4888  141.7120  167.9840 C.ar    1  UNL1        0.0991
     16 C         140.7448  140.7259  170.8134 C.3     1  UNL1        0.0051
     17 C         139.7975  140.0560  169.8627 C.3     1  UNL1        0.0295
     18 C         137.9671  142.2140  157.4664 C.3     1  UNL1        0.0473
     19 C         137.7523  140.7329  157.5690 C.3     1  UNL1        0.2054
     20 O         137.3734  140.1194  158.8842 O.3     1  UNL1       -0.4754
     21 C         138.4261  139.4956  159.7519 C.ar    1  UNL1        0.1408
     22 C         139.8036  139.2594  159.2073 C.ar    1  UNL1        0.0367
     23 C         140.8563  138.6357  160.0749 C.ar    1  UNL1        0.0016
     24 C         140.5315  138.2482  161.4871 C.ar    1  UNL1        0.0146
     25 C         139.1540  138.4845  162.0317 C.ar    1  UNL1        0.1396
     26 F         138.8291  138.0971  163.4440 F       1  UNL1       -0.2044
     27 C         138.1013  139.1082  161.1641 C.ar    1  UNL1        0.0662
     28 C         141.5842  137.6245  162.3548 C.3     1  UNL1        0.1138
     29 C         142.7289  138.4530  162.8581 C.2     1  UNL1        0.2301
     30 O         143.7784  138.9405  161.9037 O.2     1  UNL1       -0.2745
     31 N         142.8241  138.7939  164.3157 N.am    1  UNL1       -0.2791
     32 C         143.7873  139.5722  165.1622 C.3     1  UNL1        0.0952
     33 C         142.9588  139.2759  166.3771 C.3     1  UNL1        0.0430
     34 C         141.9956  138.4976  165.5306 C.3     1  UNL1        0.0952
@<TRIPOS>BOND
     1    16    17    1
     2    17    10    1
     3    10    11   ar
     4    11    12   ar
     5    12    13   ar
     6    13     4    1
     7     4     5    1
     8     5     6    1
     9     6     7    1
    10     1     7    1
    11     1     2    1
    12     2     3    1
    13     3    18    1
    14    18    19    1
    15    19    20    1
    16    20    21    1
    17    21    22   ar
    18    22    23   ar
    19    23    24   ar
    20    24    28    1
    21    28    29    1
    22    29    30    2
    23    29    31   am
    24    31    32    1
    25    32    33    1
    26    33    34    1
    27    24    25   ar
    28    25    26    1
    29    25    27   ar
    30     7     8    1
    31     8     9    1
    32    13    14   ar
    33    14    15   ar
    34    15    10   ar
    35     9     4    1
    36     3     1    1
    37    27    21   ar
    38    34    31    1
