@<TRIPOS>MOLECULE
*****
 31 34 0 0 0
SMALL
GASTEIGER

@<TRIPOS>ATOM
      1 N         139.5123  139.0685  162.9296 N.3     1  UNL1       -0.2727
      2 C         140.1739  140.4086  162.8023 C.3     1  UNL1        0.0725
      3 C         139.8896  141.2753  161.6116 C.3     1  UNL1        0.0232
      4 C         138.9437  140.8019  160.5481 C.3     1  UNL1        0.0430
      5 C         138.2820  139.4618  160.6753 C.3     1  UNL1        0.0232
      6 C         138.5663  138.5950  161.8660 C.3     1  UNL1        0.0725
      7 C         138.0257  140.4643  159.4108 C.3     1  UNL1        0.1053
      8 N         138.0421  141.6122  158.4453 N.am    1  UNL1       -0.2282
      9 C         137.2666  141.6980  157.1643 C.2     1  UNL1        0.3088
     10 O         137.3844  142.9157  156.2964 O.2     1  UNL1       -0.2522
     11 N         136.3733  140.5661  156.7511 N.am    1  UNL1       -0.2867
     12 C         135.5977  140.6519  155.4701 C.3     1  UNL1        0.1122
     13 C         138.9703  142.6593  158.9859 C.ar    1  UNL1        0.1345
     14 N         139.3801  144.0041  158.4628 N.ar    1  UNL1       -0.2291
     15 C         140.3470  144.8480  159.2391 C.ar    1  UNL1        0.1003
     16 C         140.9042  144.3472  160.5387 C.ar    1  UNL1        0.0204
     17 C         140.4944  143.0025  161.0618 C.ar    1  UNL1        0.0001
     18 C         139.5275  142.1585  160.2855 C.ar    1  UNL1        0.0109
     19 H         136.2960  139.7669  157.3208 H       1  UNL1        0.1510
     20 C         139.7966  138.2016  164.1203 C.3     1  UNL1        0.0722
     21 C         139.1808  140.4197  169.6611 C.2     1  UNL1        0.4049
     22 O         137.8845  140.2509  170.3969 O.2     1  UNL1       -0.2262
     23 N         139.3347  139.8652  168.2760 N.am    1  UNL1       -0.2460
     24 C         140.6310  140.0341  167.5403 C.3     1  UNL1        0.0968
     25 C         140.7849  139.4795  166.1550 C.3     1  UNL1        0.0231
     26 C         139.6426  138.7562  165.5055 C.3     1  UNL1        0.0194
     27 C         138.3463  138.5873  166.2413 C.3     1  UNL1        0.0231
     28 C         138.1924  139.1418  167.6264 C.3     1  UNL1        0.0968
     29 O         140.3231  141.1431  170.3107 O.3     1  UNL1       -0.4345
     30 C         140.4438  143.6459  169.6240 C.3     1  UNL1        0.0513
     31 C         140.1882  142.5949  170.6632 C.3     1  UNL1        0.2102
@<TRIPOS>BOND
     1    30    31    1
     2    31    29    1
     3    29    21    1
     4    21    22    2
     5    21    23   am
     6    23    24    1
     7    24    25    1
     8    25    26    1
     9    26    20    1
    10    20     1    1
    11     1     2    1
    12     2     3    1
    13     3     4    1
    14     4     5    1
    15     5     6    1
    16     4     7    1
    17     7     8    1
    18     8     9   am
    19     9    10    2
    20     9    11   am
    21    11    12    1
    22     8    13    1
    23    13    14   ar
    24    14    15   ar
    25    15    16   ar
    26    16    17   ar
    27    17    18   ar
    28    26    27    1
    29    27    28    1
    30    28    23    1
    31     6     1    1
    32    18    13   ar
    33    18     4    1
    34    11    19    1
@<TRIPOS>MOLECULE
*****
 31 34 0 0 0
SMALL
GASTEIGER

@<TRIPOS>ATOM
      1 N         140.6296  144.7427  162.6916 N.3     1  UNL1       -0.2727
      2 C         141.6523  143.7640  162.1954 C.3     1  UNL1        0.0725
      3 C         142.0320  143.7471  160.7443 C.3     1  UNL1        0.0232
      4 C         141.3891  144.7088  159.7896 C.3     1  UNL1        0.0430
      5 C         140.3664  145.6875  160.2858 C.3     1  UNL1        0.0232
      6 C         139.9867  145.7044  161.7368 C.3     1  UNL1        0.0725
      7 C         140.8343  145.6053  158.7225 C.3     1  UNL1        0.1053
      8 N         141.4926  145.2429  157.4242 N.am    1  UNL1       -0.2282
      9 C         141.2346  145.8877  156.0947 C.2     1  UNL1        0.3088
     10 O         141.9726  145.4166  154.8768 O.2     1  UNL1       -0.2522
     11 N         140.2385  147.0037  155.9831 N.am    1  UNL1       -0.2867
     12 C         139.9805  147.6485  154.6536 C.3     1  UNL1        0.1122
     13 C         142.4543  144.1226  157.6889 C.ar    1  UNL1        0.1345
     14 N         143.3799  143.3603  156.7878 N.ar    1  UNL1       -0.2291
     15 C         144.2416  142.2681  157.3484 C.ar    1  UNL1        0.1003
     16 C         144.1776  141.9379  158.8103 C.ar    1  UNL1        0.0204
     17 C         143.2520  142.7002  159.7114 C.ar    1  UNL1        0.0001
     18 C         142.3903  143.7925  159.1508 C.ar    1  UNL1        0.0109
     19 H         139.7541  147.3129  156.7825 H       1  UNL1        0.1510
     20 C         140.2499  144.7596  164.1427 C.3     1  UNL1        0.0722
     21 C         138.8650  139.6363  166.9414 C.2     1  UNL1        0.4049
     22 O         139.4274  139.3492  168.3020 O.2     1  UNL1       -0.2262
     23 N         139.2112  140.9171  166.2417 N.am    1  UNL1       -0.2460
     24 C         138.6488  141.2042  164.8811 C.3     1  UNL1        0.0968
     25 C         138.9950  142.4851  164.1814 C.3     1  UNL1        0.0231
     26 C         139.9037  143.4788  164.8423 C.3     1  UNL1        0.0194
     27 C         140.4661  143.1917  166.2030 C.3     1  UNL1        0.0231
     28 C         140.1198  141.9109  166.9026 C.3     1  UNL1        0.0968
     29 O         137.9563  138.6425  166.2805 O.3     1  UNL1       -0.4345
     30 C         139.7747  137.6331  164.7233 C.3     1  UNL1        0.0513
     31 C         138.5350  137.4663  165.5512 C.3     1  UNL1        0.2102
@<TRIPOS>BOND
     1    30    31    1
     2    31    29    1
     3    29    21    1
     4    21    22    2
     5    21    23   am
     6    23    24    1
     7    24    25    1
     8    25    26    1
     9    26    20    1
    10    20     1    1
    11     1     2    1
    12     2     3    1
    13     3     4    1
    14     4     5    1
    15     5     6    1
    16     4     7    1
    17     7     8    1
    18     8     9   am
    19     9    10    2
    20     9    11   am
    21    11    12    1
    22     8    13    1
    23    13    14   ar
    24    14    15   ar
    25    15    16   ar
    26    16    17   ar
    27    17    18   ar
    28    26    27    1
    29    27    28    1
    30    28    23    1
    31     6     1    1
    32    18    13   ar
    33    18     4    1
    34    11    19    1
@<TRIPOS>MOLECULE
*****
 31 34 0 0 0
SMALL
GASTEIGER

@<TRIPOS>ATOM
      1 N         140.1558  139.1993  162.8081 N.3     1  UNL1       -0.2727
      2 C         139.8576  140.6681  162.7484 C.3     1  UNL1        0.0725
      3 C         140.5210  141.5265  161.7126 C.3     1  UNL1        0.0232
      4 C         141.4827  140.9161  160.7365 C.3     1  UNL1        0.0430
      5 C         141.7809  139.4473  160.7963 C.3     1  UNL1        0.0232
      6 C         141.1175  138.5889  161.8321 C.3     1  UNL1        0.0725
      7 C         142.4611  140.4496  159.6997 C.3     1  UNL1        0.1053
      8 N         142.8674  141.6370  158.8780 N.am    1  UNL1       -0.2282
      9 C         143.8316  141.6259  157.7291 C.2     1  UNL1        0.3088
     10 O         144.1418  142.8984  156.9980 O.2     1  UNL1       -0.2522
     11 N         144.4857  140.3423  157.3113 N.am    1  UNL1       -0.2867
     12 C         145.4499  140.3312  156.1624 C.3     1  UNL1        0.1122
     13 C         142.1399  142.8375  159.4071 C.ar    1  UNL1        0.1345
     14 N         142.1462  144.2787  158.9913 N.ar    1  UNL1       -0.2291
     15 C         141.2968  145.2743  159.7241 C.ar    1  UNL1        0.1003
     16 C         140.4410  144.8289  160.8727 C.ar    1  UNL1        0.0204
     17 C         140.4347  143.3877  161.2885 C.ar    1  UNL1        0.0001
     18 C         141.2842  142.3920  160.5556 C.ar    1  UNL1        0.0109
     19 H         144.2821  139.5071  157.7911 H       1  UNL1        0.1510
     20 C         139.4924  138.3408  163.8439 C.3     1  UNL1        0.0722
     21 C         139.0520  140.2724  169.5074 C.2     1  UNL1        0.4049
     22 O         137.8688  139.8825  170.3430 O.2     1  UNL1       -0.2262
     23 N         139.1621  139.7895  168.0915 N.am    1  UNL1       -0.2460
     24 C         140.3452  140.1794  167.2560 C.3     1  UNL1        0.0968
     25 C         140.4554  139.6964  165.8401 C.3     1  UNL1        0.0231
     26 C         139.3823  138.8237  165.2598 C.3     1  UNL1        0.0194
     27 C         138.1991  138.4338  166.0954 C.3     1  UNL1        0.0231
     28 C         138.0890  138.9167  167.5112 C.3     1  UNL1        0.0968
     29 O         140.1250  141.1452  170.0877 O.3     1  UNL1       -0.4345
     30 C         140.7198  143.6647  169.8677 C.3     1  UNL1        0.0513
     31 C         139.8328  142.5816  170.4063 C.3     1  UNL1        0.2102
@<TRIPOS>BOND
     1    30    31    1
     2    31    29    1
     3    29    21    1
     4    21    22    2
     5    21    23   am
     6    23    24    1
     7    24    25    1
     8    25    26    1
     9    26    20    1
    10    20     1    1
    11     1     2    1
    12     2     3    1
    13     3     4    1
    14     4     5    1
    15     5     6    1
    16     4     7    1
    17     7     8    1
    18     8     9   am
    19     9    10    2
    20     9    11   am
    21    11    12    1
    22     8    13    1
    23    13    14   ar
    24    14    15   ar
    25    15    16   ar
    26    16    17   ar
    27    17    18   ar
    28    26    27    1
    29    27    28    1
    30    28    23    1
    31     6     1    1
    32    18    13   ar
    33    18     4    1
    34    11    19    1
@<TRIPOS>MOLECULE
*****
 31 34 0 0 0
SMALL
GASTEIGER

@<TRIPOS>ATOM
      1 N         143.3242  138.4737  162.9977 N.3     1  UNL1       -0.2727
      2 C         141.9178  138.0344  163.2791 C.3     1  UNL1        0.0725
      3 C         141.2224  138.4979  164.5247 C.3     1  UNL1        0.0232
      4 C         141.9332  139.4006  165.4889 C.3     1  UNL1        0.0430
      5 C         143.3396  139.8399  165.2076 C.3     1  UNL1        0.0232
      6 C         144.0350  139.3765  163.9620 C.3     1  UNL1        0.0725
      7 C         142.5134  140.2998  166.5400 C.3     1  UNL1        0.1053
      8 N         141.4741  140.5012  167.6029 N.am    1  UNL1       -0.2282
      9 C         141.6299  141.3315  168.8423 C.2     1  UNL1        0.3088
     10 O         140.4975  141.4397  169.8198 O.2     1  UNL1       -0.2522
     11 N         142.9183  142.0536  169.1042 N.am    1  UNL1       -0.2867
     12 C         143.0742  142.8840  170.3436 C.3     1  UNL1        0.1122
     13 C         140.2517  139.7263  167.2086 C.ar    1  UNL1        0.1345
     14 N         138.9169  139.5523  167.8704 N.ar    1  UNL1       -0.2291
     15 C         137.8659  138.6981  167.2258 C.ar    1  UNL1        0.1003
     16 C         138.1496  138.0178  165.9193 C.ar    1  UNL1        0.0204
     17 C         139.4844  138.1919  165.2575 C.ar    1  UNL1        0.0001
     18 C         140.5354  139.0462  165.9021 C.ar    1  UNL1        0.0109
     19 H         143.6617  141.9826  168.4626 H       1  UNL1        0.1510
     20 C         144.0197  138.0103  161.7521 C.3     1  UNL1        0.0722
     21 C         142.4891  140.3138  156.4276 C.2     1  UNL1        0.4049
     22 O         141.7087  139.4870  155.4490 O.2     1  UNL1       -0.2262
     23 N         142.8717  139.7379  157.7587 N.am    1  UNL1       -0.2460
     24 C         143.6520  140.5647  158.7372 C.3     1  UNL1        0.0968
     25 C         144.0347  139.9889  160.0684 C.3     1  UNL1        0.0231
     26 C         143.6371  138.5862  160.4210 C.3     1  UNL1        0.0194
     27 C         142.8567  137.7594  159.4424 C.3     1  UNL1        0.0231
     28 C         142.4741  138.3353  158.1113 C.3     1  UNL1        0.0968
     29 O         142.8867  141.7165  156.0750 O.3     1  UNL1       -0.4345
     30 C         145.4466  142.1348  155.9261 C.3     1  UNL1        0.0513
     31 C         144.1171  141.9631  155.2531 C.3     1  UNL1        0.2102
@<TRIPOS>BOND
     1    30    31    1
     2    31    29    1
     3    29    21    1
     4    21    22    2
     5    21    23   am
     6    23    24    1
     7    24    25    1
     8    25    26    1
     9    26    20    1
    10    20     1    1
    11     1     2    1
    12     2     3    1
    13     3     4    1
    14     4     5    1
    15     5     6    1
    16     4     7    1
    17     7     8    1
    18     8     9   am
    19     9    10    2
    20     9    11   am
    21    11    12    1
    22     8    13    1
    23    13    14   ar
    24    14    15   ar
    25    15    16   ar
    26    16    17   ar
    27    17    18   ar
    28    26    27    1
    29    27    28    1
    30    28    23    1
    31     6     1    1
    32    18    13   ar
    33    18     4    1
    34    11    19    1
@<TRIPOS>MOLECULE
*****
 31 34 0 0 0
SMALL
GASTEIGER

@<TRIPOS>ATOM
      1 N         143.3634  138.5649  162.9936 N.3     1  UNL1       -0.2727
      2 C         141.9634  138.0991  163.2642 C.3     1  UNL1        0.0725
      3 C         141.2510  138.5467  164.5060 C.3     1  UNL1        0.0232
      4 C         141.9384  139.4599  165.4772 C.3     1  UNL1        0.0430
      5 C         143.3384  139.9257  165.2067 C.3     1  UNL1        0.0232
      6 C         144.0508  139.4782  163.9649 C.3     1  UNL1        0.0725
      7 C         142.4947  140.3671  166.5344 C.3     1  UNL1        0.1053
      8 N         141.4446  140.5467  167.5905 N.am    1  UNL1       -0.2282
      9 C         141.5765  141.3767  168.8330 C.2     1  UNL1        0.3088
     10 O         140.4355  141.4617  169.8028 O.2     1  UNL1       -0.2522
     11 N         142.8496  142.1217  169.1054 N.am    1  UNL1       -0.2867
     12 C         142.9816  142.9517  170.3479 C.3     1  UNL1        0.1122
     13 C         140.2394  139.7505  167.1859 C.ar    1  UNL1        0.1345
     14 N         138.9035  139.5503  167.8381 N.ar    1  UNL1       -0.2291
     15 C         137.8728  138.6785  167.1842 C.ar    1  UNL1        0.1003
     16 C         138.1780  138.0068  165.8781 C.ar    1  UNL1        0.0204
     17 C         139.5139  138.2070  165.2260 C.ar    1  UNL1        0.0001
     18 C         140.5446  139.0788  165.8799 C.ar    1  UNL1        0.0109
     19 H         143.5985  142.0659  168.4689 H       1  UNL1        0.1510
     20 C         144.0759  138.1174  161.7518 C.3     1  UNL1        0.0722
     21 C         142.0510  139.7994  156.3601 C.2     1  UNL1        0.4049
     22 O         142.2608  141.2069  155.8858 O.2     1  UNL1       -0.2262
     23 N         142.5572  139.3789  157.7080 N.am    1  UNL1       -0.2460
     24 C         142.3474  137.9715  158.1823 C.3     1  UNL1        0.0968
     25 C         142.8537  137.5509  159.5303 C.3     1  UNL1        0.0231
     26 C         143.5697  138.5379  160.4039 C.3     1  UNL1        0.0194
     27 C         143.7795  139.9454  159.9295 C.3     1  UNL1        0.0231
     28 C         143.2732  140.3659  158.5816 C.3     1  UNL1        0.0968
     29 O         141.3350  138.8124  155.4865 O.3     1  UNL1       -0.4345
     30 C         139.0079  139.7849  156.1101 C.3     1  UNL1        0.0513
     31 C         139.8478  138.6522  155.5987 C.3     1  UNL1        0.2102
@<TRIPOS>BOND
     1    30    31    1
     2    31    29    1
     3    29    21    1
     4    21    22    2
     5    21    23   am
     6    23    24    1
     7    24    25    1
     8    25    26    1
     9    26    20    1
    10    20     1    1
    11     1     2    1
    12     2     3    1
    13     3     4    1
    14     4     5    1
    15     5     6    1
    16     4     7    1
    17     7     8    1
    18     8     9   am
    19     9    10    2
    20     9    11   am
    21    11    12    1
    22     8    13    1
    23    13    14   ar
    24    14    15   ar
    25    15    16   ar
    26    16    17   ar
    27    17    18   ar
    28    26    27    1
    29    27    28    1
    30    28    23    1
    31     6     1    1
    32    18    13   ar
    33    18     4    1
    34    11    19    1
@<TRIPOS>MOLECULE
*****
 31 34 0 0 0
SMALL
GASTEIGER

@<TRIPOS>ATOM
      1 N         139.5439  138.7481  162.7057 N.3     1  UNL1       -0.2727
      2 C         140.3735  138.0213  161.6891 C.3     1  UNL1        0.0725
      3 C         140.8616  138.7405  160.4667 C.3     1  UNL1        0.0232
      4 C         140.5201  140.1866  160.2609 C.3     1  UNL1        0.0430
      5 C         139.6906  140.9134  161.2775 C.3     1  UNL1        0.0232
      6 C         139.2025  140.1942  162.4999 C.3     1  UNL1        0.0725
      7 C         140.2601  141.6243  159.9210 C.3     1  UNL1        0.1053
      8 N         140.9333  141.9207  158.6137 N.am    1  UNL1       -0.2282
      9 C         140.9308  143.2399  157.8999 C.2     1  UNL1        0.3088
     10 O         141.6517  143.3867  156.5928 O.2     1  UNL1       -0.2522
     11 N         140.2074  144.4123  158.4932 N.am    1  UNL1       -0.2867
     12 C         140.2049  145.7316  157.7794 C.3     1  UNL1        0.1122
     13 C         141.6094  140.6661  158.1456 C.ar    1  UNL1        0.1345
     14 N         142.4245  140.3612  156.9239 N.ar    1  UNL1       -0.2291
     15 C         142.9843  138.9846  156.7202 C.ar    1  UNL1        0.1003
     16 C         142.7290  137.9129  157.7382 C.ar    1  UNL1        0.0204
     17 C         141.9139  138.2178  158.9598 C.ar    1  UNL1        0.0001
     18 C         141.3541  139.5944  159.1635 C.ar    1  UNL1        0.0109
     19 H         139.7342  144.3160  159.3512 H       1  UNL1        0.1510
     20 C         139.0557  138.0289  163.9283 C.3     1  UNL1        0.0722
     21 C         139.7084  140.5313  169.3423 C.2     1  UNL1        0.4049
     22 O         138.5582  140.5467  170.3050 O.2     1  UNL1       -0.2262
     23 N         139.5452  139.9057  167.9888 N.am    1  UNL1       -0.2460
     24 C         140.6954  139.8902  167.0261 C.3     1  UNL1        0.0968
     25 C         140.5323  139.2646  165.6726 C.3     1  UNL1        0.0231
     26 C         139.2189  138.6545  165.2817 C.3     1  UNL1        0.0194
     27 C         138.0687  138.6699  166.2445 C.3     1  UNL1        0.0231
     28 C         138.2319  139.2955  167.5980 C.3     1  UNL1        0.0968
     29 O         141.0218  141.1414  169.7331 O.3     1  UNL1       -0.4345
     30 C         140.4162  143.6654  169.8455 C.3     1  UNL1        0.0513
     31 C         141.3227  142.5668  169.3753 C.3     1  UNL1        0.2102
@<TRIPOS>BOND
     1    30    31    1
     2    31    29    1
     3    29    21    1
     4    21    22    2
     5    21    23   am
     6    23    24    1
     7    24    25    1
     8    25    26    1
     9    26    20    1
    10    20     1    1
    11     1     2    1
    12     2     3    1
    13     3     4    1
    14     4     5    1
    15     5     6    1
    16     4     7    1
    17     7     8    1
    18     8     9   am
    19     9    10    2
    20     9    11   am
    21    11    12    1
    22     8    13    1
    23    13    14   ar
    24    14    15   ar
    25    15    16   ar
    26    16    17   ar
    27    17    18   ar
    28    26    27    1
    29    27    28    1
    30    28    23    1
    31     6     1    1
    32    18    13   ar
    33    18     4    1
    34    11    19    1
@<TRIPOS>MOLECULE
*****
 31 34 0 0 0
SMALL
GASTEIGER

@<TRIPOS>ATOM
      1 N         139.4385  140.4504  161.6914 N.3     1  UNL1       -0.2727
      2 C         140.5400  141.3983  161.3199 C.3     1  UNL1        0.0725
      3 C         141.5374  141.0136  160.2677 C.3     1  UNL1        0.0232
      4 C         141.4333  139.6810  159.5871 C.3     1  UNL1        0.0430
      5 C         140.3317  138.7331  159.9586 C.3     1  UNL1        0.0232
      6 C         139.3343  139.1178  161.0108 C.3     1  UNL1        0.0725
      7 C         141.4564  138.3896  158.8242 C.3     1  UNL1        0.1053
      8 N         142.6202  138.4306  157.8786 N.am    1  UNL1       -0.2282
      9 C         143.0179  137.3455  156.9225 C.2     1  UNL1        0.3088
     10 O         144.2122  137.5295  156.0339 O.2     1  UNL1       -0.2522
     11 N         142.2214  136.0762  156.8550 N.am    1  UNL1       -0.2867
     12 C         142.6191  134.9911  155.8989 C.3     1  UNL1        0.1122
     13 C         143.3163  139.7473  158.0571 C.ar    1  UNL1        0.1345
     14 N         144.5232  140.3425  157.3946 N.ar    1  UNL1       -0.2291
     15 C         144.9967  141.7103  157.7879 C.ar    1  UNL1        0.1003
     16 C         144.2632  142.4831  158.8437 C.ar    1  UNL1        0.0204
     17 C         143.0562  141.8879  159.5063 C.ar    1  UNL1        0.0001
     18 C         142.5827  140.5201  159.1129 C.ar    1  UNL1        0.0109
     19 H         141.4375  135.9554  157.4383 H       1  UNL1        0.1510
     20 C         138.4410  140.8351  162.7437 C.3     1  UNL1        0.0722
     21 C         140.0015  140.7352  168.5363 C.2     1  UNL1        0.4049
     22 O         139.6297  139.5614  169.3931 O.2     1  UNL1       -0.2262
     23 N         139.6114  140.7601  167.0882 N.am    1  UNL1       -0.2460
     24 C         139.9832  141.9339  166.2314 C.3     1  UNL1        0.0968
     25 C         139.5931  141.9589  164.7832 C.3     1  UNL1        0.0231
     26 C         138.8311  140.8101  164.1918 C.3     1  UNL1        0.0194
     27 C         138.4593  139.6364  165.0486 C.3     1  UNL1        0.0231
     28 C         138.8494  139.6114  166.4968 C.3     1  UNL1        0.0968
     29 O         140.7635  141.8839  169.1277 O.3     1  UNL1       -0.4345
     30 C         140.4953  144.2927  170.0637 C.3     1  UNL1        0.0513
     31 C         140.0705  142.8543  170.0378 C.3     1  UNL1        0.2102
@<TRIPOS>BOND
     1    30    31    1
     2    31    29    1
     3    29    21    1
     4    21    22    2
     5    21    23   am
     6    23    24    1
     7    24    25    1
     8    25    26    1
     9    26    20    1
    10    20     1    1
    11     1     2    1
    12     2     3    1
    13     3     4    1
    14     4     5    1
    15     5     6    1
    16     4     7    1
    17     7     8    1
    18     8     9   am
    19     9    10    2
    20     9    11   am
    21    11    12    1
    22     8    13    1
    23    13    14   ar
    24    14    15   ar
    25    15    16   ar
    26    16    17   ar
    27    17    18   ar
    28    26    27    1
    29    27    28    1
    30    28    23    1
    31     6     1    1
    32    18    13   ar
    33    18     4    1
    34    11    19    1
@<TRIPOS>MOLECULE
*****
 31 34 0 0 0
SMALL
GASTEIGER

@<TRIPOS>ATOM
      1 N         143.4465  139.1461  162.0243 N.3     1  UNL1       -0.2727
      2 C         142.2631  140.0493  161.8406 C.3     1  UNL1        0.0725
      3 C         141.3484  139.8576  160.6673 C.3     1  UNL1        0.0232
      4 C         141.6171  138.7628  159.6778 C.3     1  UNL1        0.0430
      5 C         142.8005  137.8596  159.8616 C.3     1  UNL1        0.0232
      6 C         143.7152  138.0513  161.0348 C.3     1  UNL1        0.0725
      7 C         141.7577  137.7168  158.6119 C.3     1  UNL1        0.1053
      8 N         140.6286  137.8910  157.6397 N.am    1  UNL1       -0.2282
      9 C         140.3814  137.0579  156.4171 C.2     1  UNL1        0.3088
     10 O         139.2048  137.3520  155.5345 O.2     1  UNL1       -0.2522
     11 N         141.3108  135.9307  156.0771 N.am    1  UNL1       -0.2867
     12 C         141.0636  135.0976  154.8545 C.3     1  UNL1        0.1122
     13 C         139.7902  139.0446  158.1049 C.ar    1  UNL1        0.1345
     14 N         138.5495  139.6741  157.5443 N.ar    1  UNL1       -0.2291
     15 C         137.9196  140.8422  158.2432 C.ar    1  UNL1        0.1003
     16 C         138.5305  141.3811  159.5028 C.ar    1  UNL1        0.0204
     17 C         139.7712  140.7516  160.0635 C.ar    1  UNL1        0.0001
     18 C         140.4011  139.5834  159.3645 C.ar    1  UNL1        0.0109
     19 H         142.0831  135.7377  156.6564 H       1  UNL1        0.1510
     20 C         144.3612  139.3378  163.1976 C.3     1  UNL1        0.0722
     21 C         142.1550  141.2426  168.4421 C.2     1  UNL1        0.4049
     22 O         142.2357  142.6955  168.8064 O.2     1  UNL1       -0.2262
     23 N         142.7066  140.7664  167.1310 N.am    1  UNL1       -0.2460
     24 C         142.6259  139.3136  166.7667 C.3     1  UNL1        0.0968
     25 C         143.1775  138.8373  165.4555 C.3     1  UNL1        0.0231
     26 C         143.8097  139.8140  164.5087 C.3     1  UNL1        0.0194
     27 C         143.8904  141.2669  164.8731 C.3     1  UNL1        0.0231
     28 C         143.3388  141.7430  166.1842 C.3     1  UNL1        0.0968
     29 O         141.5228  140.2659  169.3889 O.3     1  UNL1       -0.4345
     30 C         139.2283  139.9196  168.2203 C.3     1  UNL1        0.0513
     31 C         140.0288  140.1565  169.4666 C.3     1  UNL1        0.2102
@<TRIPOS>BOND
     1    30    31    1
     2    31    29    1
     3    29    21    1
     4    21    22    2
     5    21    23   am
     6    23    24    1
     7    24    25    1
     8    25    26    1
     9    26    20    1
    10    20     1    1
    11     1     2    1
    12     2     3    1
    13     3     4    1
    14     4     5    1
    15     5     6    1
    16     4     7    1
    17     7     8    1
    18     8     9   am
    19     9    10    2
    20     9    11   am
    21    11    12    1
    22     8    13    1
    23    13    14   ar
    24    14    15   ar
    25    15    16   ar
    26    16    17   ar
    27    17    18   ar
    28    26    27    1
    29    27    28    1
    30    28    23    1
    31     6     1    1
    32    18    13   ar
    33    18     4    1
    34    11    19    1
@<TRIPOS>MOLECULE
*****
 31 34 0 0 0
SMALL
GASTEIGER

@<TRIPOS>ATOM
      1 N         141.2206  138.7215  158.8531 N.3     1  UNL1       -0.2727
      2 C         142.4809  139.2680  159.4557 C.3     1  UNL1        0.0725
      3 C         142.5599  139.5152  160.9330 C.3     1  UNL1        0.0232
      4 C         141.3787  139.2161  161.8078 C.3     1  UNL1        0.0430
      5 C         140.1185  138.6696  161.2052 C.3     1  UNL1        0.0232
      6 C         140.0394  138.4224  159.7279 C.3     1  UNL1        0.0725
      7 C         140.2848  138.9664  162.8033 C.3     1  UNL1        0.1053
      8 N         140.7956  139.3525  164.1599 N.am    1  UNL1       -0.2282
      9 C         140.0310  139.2656  165.4475 C.2     1  UNL1        0.3088
     10 O         140.6765  139.6901  166.7331 O.2     1  UNL1       -0.2522
     11 N         138.6209  138.7542  165.4493 N.am    1  UNL1       -0.2867
     12 C         137.8563  138.6673  166.7369 C.3     1  UNL1        0.1122
     13 C         142.2052  139.8407  164.0027 C.ar    1  UNL1        0.1345
     14 N         143.2072  140.3512  164.9954 N.ar    1  UNL1       -0.2291
     15 C         144.5695  140.7773  164.5345 C.ar    1  UNL1        0.1003
     16 C         144.9299  140.6930  163.0809 C.ar    1  UNL1        0.0204
     17 C         143.9279  140.1826  162.0882 C.ar    1  UNL1        0.0001
     18 C         142.5656  139.7564  162.5491 C.ar    1  UNL1        0.0109
     19 H         138.1972  138.4756  164.6054 H       1  UNL1        0.1510
     20 C         141.1415  138.4742  157.3757 C.3     1  UNL1        0.0722
     21 C         142.9193  133.2080  155.1160 C.2     1  UNL1        0.4049
     22 O         142.1186  132.5480  154.0327 O.2     1  UNL1       -0.2262
     23 N         142.4748  134.5246  155.6809 N.am    1  UNL1       -0.2460
     24 C         143.2755  135.1845  156.7641 C.3     1  UNL1        0.0968
     25 C         142.8310  136.5011  157.3291 C.3     1  UNL1        0.0231
     26 C         141.5860  137.1577  156.8108 C.3     1  UNL1        0.0194
     27 C         140.7853  136.4977  155.7275 C.3     1  UNL1        0.0231
     28 C         141.2297  135.1812  155.1626 C.3     1  UNL1        0.0968
     29 O         144.1643  132.5514  155.6343 O.3     1  UNL1       -0.4345
     30 C         145.1432  131.6217  157.8541 C.3     1  UNL1        0.0513
     31 C         144.0846  131.6004  156.7916 C.3     1  UNL1        0.2102
@<TRIPOS>BOND
     1    30    31    1
     2    31    29    1
     3    29    21    1
     4    21    22    2
     5    21    23   am
     6    23    24    1
     7    24    25    1
     8    25    26    1
     9    26    20    1
    10    20     1    1
    11     1     2    1
    12     2     3    1
    13     3     4    1
    14     4     5    1
    15     5     6    1
    16     4     7    1
    17     7     8    1
    18     8     9   am
    19     9    10    2
    20     9    11   am
    21    11    12    1
    22     8    13    1
    23    13    14   ar
    24    14    15   ar
    25    15    16   ar
    26    16    17   ar
    27    17    18   ar
    28    26    27    1
    29    27    28    1
    30    28    23    1
    31     6     1    1
    32    18    13   ar
    33    18     4    1
    34    11    19    1
