@<TRIPOS>MOLECULE
*****
 33 36 0 0 0
SMALL
GASTEIGER

@<TRIPOS>ATOM
      1 C         139.0140  139.2423  165.3270 C.ar    1  UNL1        0.0000
      2 C         138.2409  140.1169  164.3851 C.ar    1  UNL1       -0.0003
      3 C         138.1359  139.7484  162.9347 C.ar    1  UNL1       -0.0042
      4 C         138.8041  138.5054  162.4265 C.ar    1  UNL1       -0.0194
      5 C         139.5772  137.6307  163.3685 C.ar    1  UNL1       -0.0042
      6 C         139.6822  137.9992  164.8187 C.ar    1  UNL1       -0.0003
      7 C         142.6092  142.2678  168.8924 C.3     1  UNL1        0.1369
      8 N         141.3894  141.6130  169.4696 N.ar    1  UNL1       -0.2601
      9 C         140.9690  141.6455  170.9091 C.ar    1  UNL1        0.4220
     10 O         141.6946  142.3384  172.0241 O.2     1  UNL1       -0.2226
     11 O         139.6955  140.8633  171.0377 O.2     1  UNL1       -0.4068
     12 C         139.3289  140.3475  169.6778 C.ar    1  UNL1        0.1660
     13 C         138.1771  139.5157  169.1967 C.ar    1  UNL1        0.0392
     14 C         138.0721  139.1473  167.7465 C.ar    1  UNL1        0.0032
     15 C         139.1190  139.6107  166.7773 C.ar    1  UNL1        0.0016
     16 C         140.2708  140.4424  167.2583 C.ar    1  UNL1        0.0205
     17 C         140.3758  140.8108  168.7086 C.ar    1  UNL1        0.1000
     18 C         138.6991  138.1369  160.9763 C.3     1  UNL1        0.0616
     19 C         139.6441  138.7392  159.9792 C.3     1  UNL1        0.1684
     20 N         140.6446  139.7663  160.4195 N.am    1  UNL1       -0.2916
     21 C         141.9636  139.3332  160.9877 C.2     1  UNL1        0.2518
     22 O         142.2820  137.8730  161.1156 O.2     1  UNL1       -0.2724
     23 H         140.4356  140.7247  160.3356 H       1  UNL1        0.1504
     24 C         142.9641  140.3603  161.4281 C.3     1  UNL1        0.2064
     25 C         144.1275  139.8388  162.2183 C.3     1  UNL1        0.1080
     26 N         145.2831  140.6013  162.7956 N.3     1  UNL1       -0.2949
     27 C         145.5607  142.0737  162.7253 C.3     1  UNL1        0.0712
     28 C         144.7512  143.1473  162.0603 C.3     1  UNL1        0.0491
     29 C         143.4642  143.0136  161.3014 C.3     1  UNL1        0.1442
     30 O         142.6689  141.7733  161.0200 O.3     1  UNL1       -0.3456
     31 H         146.1081  140.1657  162.3832 H       1  UNL1        0.1233
     32 C         139.5886  138.3142  158.5416 C.1     1  UNL1        0.0927
     33 N         139.5331  137.8894  157.1042 N.1     1  UNL1       -0.1942
@<TRIPOS>BOND
     1     7     8    1
     2     8     9   ar
     3     9    10    2
     4     9    11   ar
     5    11    12   ar
     6    12    13   ar
     7    13    14   ar
     8    14    15   ar
     9    15     1    1
    10     1     2   ar
    11     2     3   ar
    12     3     4   ar
    13     4    18    1
    14    19    18    1
    15    19    32    1
    16    32    33    3
    17    19    20    1
    18    20    21   am
    19    21    22    2
    20    24    21    1
    21    24    25    1
    22    25    26    1
    23    26    27    1
    24    27    28    1
    25    28    29    1
    26    29    30    1
    27     4     5   ar
    28     5     6   ar
    29    15    16   ar
    30    16    17   ar
    31    17     8   ar
    32    17    12   ar
    33     6     1   ar
    34    30    24    1
    35    20    23    1
    36    26    31    1
@<TRIPOS>MOLECULE
*****
 33 36 0 0 0
SMALL
GASTEIGER

@<TRIPOS>ATOM
      1 C         141.1300  138.9750  164.8981 C.ar    1  UNL1        0.0000
      2 C         142.4259  139.5409  164.3980 C.ar    1  UNL1       -0.0003
      3 C         142.9711  139.1066  163.0697 C.ar    1  UNL1       -0.0042
      4 C         142.2202  138.1063  162.2417 C.ar    1  UNL1       -0.0194
      5 C         140.9242  137.5404  162.7419 C.ar    1  UNL1       -0.0042
      6 C         140.3791  137.9747  164.0701 C.ar    1  UNL1       -0.0003
      7 C         143.0139  141.6173  169.8237 C.3     1  UNL1        0.1369
      8 N         141.5780  141.1949  169.7247 N.ar    1  UNL1       -0.2601
      9 C         140.5300  141.3785  170.7820 C.ar    1  UNL1        0.4220
     10 O         140.7340  142.0167  172.1241 O.2     1  UNL1       -0.2226
     11 O         139.2424  140.8119  170.2617 O.2     1  UNL1       -0.4068
     12 C         139.4945  140.2780  168.8828 C.ar    1  UNL1        0.1660
     13 C         138.5961  139.6070  167.8865 C.ar    1  UNL1        0.0392
     14 C         139.1413  139.1726  166.5583 C.ar    1  UNL1        0.0032
     15 C         140.5848  139.4094  166.2264 C.ar    1  UNL1        0.0016
     16 C         141.4832  140.0805  167.2227 C.ar    1  UNL1        0.0205
     17 C         140.9380  140.5148  168.5508 C.ar    1  UNL1        0.1000
     18 C         142.7653  137.6719  160.9135 C.3     1  UNL1        0.0616
     19 C         142.3545  138.3909  159.6628 C.3     1  UNL1        0.1684
     20 N         143.3984  138.9147  158.7215 N.am    1  UNL1       -0.2916
     21 C         143.6595  140.3894  158.6365 C.2     1  UNL1        0.2518
     22 O         142.8767  141.3402  159.4927 O.2     1  UNL1       -0.2724
     23 H         143.9122  138.2906  158.1596 H       1  UNL1        0.1504
     24 C         144.7033  140.9132  157.6952 C.3     1  UNL1        0.2064
     25 C         145.3119  142.2327  158.0672 C.3     1  UNL1        0.1080
     26 N         146.3680  143.0132  157.3423 N.3     1  UNL1       -0.2949
     27 C         147.0765  142.6668  156.0663 C.3     1  UNL1        0.0712
     28 C         146.9037  141.4544  155.2001 C.3     1  UNL1        0.0491
     29 C         145.9799  140.2890  155.3959 C.3     1  UNL1        0.1442
     30 O         145.0006  140.0481  156.5064 O.3     1  UNL1       -0.3456
     31 H         147.1156  143.1281  158.0266 H       1  UNL1        0.1233
     32 C         140.8998  138.5862  159.3534 C.1     1  UNL1        0.0927
     33 N         139.4451  138.7815  159.0439 N.1     1  UNL1       -0.1942
@<TRIPOS>BOND
     1     7     8    1
     2     8     9   ar
     3     9    10    2
     4     9    11   ar
     5    11    12   ar
     6    12    13   ar
     7    13    14   ar
     8    14    15   ar
     9    15     1    1
    10     1     2   ar
    11     2     3   ar
    12     3     4   ar
    13     4    18    1
    14    19    18    1
    15    19    32    1
    16    32    33    3
    17    19    20    1
    18    20    21   am
    19    21    22    2
    20    24    21    1
    21    24    25    1
    22    25    26    1
    23    26    27    1
    24    27    28    1
    25    28    29    1
    26    29    30    1
    27     4     5   ar
    28     5     6   ar
    29    15    16   ar
    30    16    17   ar
    31    17     8   ar
    32    17    12   ar
    33     6     1   ar
    34    30    24    1
    35    20    23    1
    36    26    31    1
@<TRIPOS>MOLECULE
*****
 33 36 0 0 0
SMALL
GASTEIGER

@<TRIPOS>ATOM
      1 C         143.0995  139.5071  165.4029 C.ar    1  UNL1        0.0000
      2 C         142.3610  138.5131  164.5565 C.ar    1  UNL1       -0.0003
      3 C         142.6865  138.3813  163.0981 C.ar    1  UNL1       -0.0042
      4 C         143.7505  139.2436  162.4863 C.ar    1  UNL1       -0.0194
      5 C         144.4890  140.2376  163.3328 C.ar    1  UNL1       -0.0042
      6 C         144.1635  140.3694  164.7911 C.ar    1  UNL1       -0.0003
      7 C         140.4091  143.3031  169.0283 C.3     1  UNL1        0.1369
      8 N         140.9942  142.0429  169.5936 N.ar    1  UNL1       -0.2601
      9 C         140.9683  141.6278  171.0347 C.ar    1  UNL1        0.4220
     10 O         140.3527  142.4001  172.1638 O.2     1  UNL1       -0.2226
     11 O         141.6659  140.3049  171.1487 O.2     1  UNL1       -0.4068
     12 C         142.1231  139.9023  169.7779 C.ar    1  UNL1        0.1660
     13 C         142.8637  138.6964  169.2807 C.ar    1  UNL1        0.0392
     14 C         143.1892  138.5647  167.8224 C.ar    1  UNL1        0.0032
     15 C         142.7740  139.6389  166.8613 C.ar    1  UNL1        0.0016
     16 C         142.0333  140.8447  167.3585 C.ar    1  UNL1        0.0205
     17 C         141.7079  140.9765  168.8168 C.ar    1  UNL1        0.1000
     18 C         144.0760  139.1118  161.0280 C.3     1  UNL1        0.0616
     19 C         143.3939  139.9939  160.0247 C.3     1  UNL1        0.1684
     20 N         142.3136  140.9362  160.4663 N.am    1  UNL1       -0.2916
     21 C         142.6622  142.3348  160.8817 C.2     1  UNL1        0.2518
     22 O         144.0909  142.7910  160.8556 O.2     1  UNL1       -0.2724
     23 H         141.3759  140.6369  160.4834 H       1  UNL1        0.1504
     24 C         141.5819  143.2772  161.3233 C.3     1  UNL1        0.2064
     25 C         141.6523  144.6619  160.7510 C.3     1  UNL1        0.1080
     26 N         140.7323  145.8217  160.9929 N.3     1  UNL1       -0.2949
     27 C         139.5147  145.8833  161.8667 C.3     1  UNL1        0.0712
     28 C         138.9163  144.8001  162.7146 C.3     1  UNL1        0.0491
     29 C         139.3879  143.3879  162.8980 C.3     1  UNL1        0.1442
     30 O         140.5742  142.7102  162.2788 O.3     1  UNL1       -0.3456
     31 H         140.3942  146.0774  160.0651 H       1  UNL1        0.1233
     32 C         143.7920  139.9335  158.5797 C.1     1  UNL1        0.0927
     33 N         144.1901  139.8731  157.1348 N.1     1  UNL1       -0.1942
@<TRIPOS>BOND
     1     7     8    1
     2     8     9   ar
     3     9    10    2
     4     9    11   ar
     5    11    12   ar
     6    12    13   ar
     7    13    14   ar
     8    14    15   ar
     9    15     1    1
    10     1     2   ar
    11     2     3   ar
    12     3     4   ar
    13     4    18    1
    14    19    18    1
    15    19    32    1
    16    32    33    3
    17    19    20    1
    18    20    21   am
    19    21    22    2
    20    24    21    1
    21    24    25    1
    22    25    26    1
    23    26    27    1
    24    27    28    1
    25    28    29    1
    26    29    30    1
    27     4     5   ar
    28     5     6   ar
    29    15    16   ar
    30    16    17   ar
    31    17     8   ar
    32    17    12   ar
    33     6     1   ar
    34    30    24    1
    35    20    23    1
    36    26    31    1
@<TRIPOS>MOLECULE
*****
 33 36 0 0 0
SMALL
GASTEIGER

@<TRIPOS>ATOM
      1 C         141.0293  138.8608  164.8691 C.ar    1  UNL1        0.0000
      2 C         140.1105  138.2047  163.8816 C.ar    1  UNL1       -0.0003
      3 C         140.6371  137.7555  162.5508 C.ar    1  UNL1       -0.0042
      4 C         142.0825  137.9626  162.2076 C.ar    1  UNL1       -0.0194
      5 C         143.0014  138.6187  163.1952 C.ar    1  UNL1       -0.0042
      6 C         142.4747  139.0678  164.5259 C.ar    1  UNL1       -0.0003
      7 C         143.0015  141.4802  169.7722 C.3     1  UNL1        0.1369
      8 N         141.5568  141.0861  169.6851 N.ar    1  UNL1       -0.2601
      9 C         140.5205  141.2936  170.7495 C.ar    1  UNL1        0.4220
     10 O         140.7469  141.9318  172.0880 O.2     1  UNL1       -0.2226
     11 O         139.2181  140.7510  170.2405 O.2     1  UNL1       -0.4068
     12 C         139.4494  140.2081  168.8614 C.ar    1  UNL1        0.1660
     13 C         138.5306  139.5519  167.8739 C.ar    1  UNL1        0.0392
     14 C         139.0572  139.1028  166.5432 C.ar    1  UNL1        0.0032
     15 C         140.5026  139.3099  166.2000 C.ar    1  UNL1        0.0016
     16 C         141.4214  139.9661  167.1875 C.ar    1  UNL1        0.0205
     17 C         140.8948  140.4152  168.5182 C.ar    1  UNL1        0.1000
     18 C         142.6092  137.5135  160.8768 C.3     1  UNL1        0.0616
     19 C         142.3828  138.3569  159.6573 C.3     1  UNL1        0.1684
     20 N         141.7387  139.7053  159.7869 N.am    1  UNL1       -0.2916
     21 C         142.5651  140.8978  160.1680 C.2     1  UNL1        0.2518
     22 O         144.0356  140.7417  160.4194 O.2     1  UNL1       -0.2724
     23 H         140.7735  139.8077  159.6219 H       1  UNL1        0.1504
     24 C         141.9210  142.2462  160.2977 C.3     1  UNL1        0.2064
     25 C         142.4258  143.3015  159.3589 C.3     1  UNL1        0.1080
     26 N         141.9915  144.7323  159.2395 N.3     1  UNL1       -0.2949
     27 C         140.9452  145.4612  160.0295 C.3     1  UNL1        0.0712
     28 C         140.0747  144.9392  161.1339 C.3     1  UNL1        0.0491
     29 C         140.0355  143.5594  161.7212 C.3     1  UNL1        0.1442
     30 O         140.8572  142.3609  161.3490 O.3     1  UNL1       -0.3456
     31 H         141.6921  144.8284  158.2692 H       1  UNL1        0.1233
     32 C         142.8005  137.8519  158.3080 C.1     1  UNL1        0.0927
     33 N         143.2182  137.3469  156.9587 N.1     1  UNL1       -0.1942
@<TRIPOS>BOND
     1     7     8    1
     2     8     9   ar
     3     9    10    2
     4     9    11   ar
     5    11    12   ar
     6    12    13   ar
     7    13    14   ar
     8    14    15   ar
     9    15     1    1
    10     1     2   ar
    11     2     3   ar
    12     3     4   ar
    13     4    18    1
    14    19    18    1
    15    19    32    1
    16    32    33    3
    17    19    20    1
    18    20    21   am
    19    21    22    2
    20    24    21    1
    21    24    25    1
    22    25    26    1
    23    26    27    1
    24    27    28    1
    25    28    29    1
    26    29    30    1
    27     4     5   ar
    28     5     6   ar
    29    15    16   ar
    30    16    17   ar
    31    17     8   ar
    32    17    12   ar
    33     6     1   ar
    34    30    24    1
    35    20    23    1
    36    26    31    1
@<TRIPOS>MOLECULE
*****
 33 36 0 0 0
SMALL
GASTEIGER

@<TRIPOS>ATOM
      1 C         138.8377  139.3570  165.4047 C.ar    1  UNL1        0.0000
      2 C         139.2223  137.9931  164.9130 C.ar    1  UNL1       -0.0003
      3 C         139.0357  137.6366  163.4679 C.ar    1  UNL1       -0.0042
      4 C         138.4646  138.6441  162.5146 C.ar    1  UNL1       -0.0194
      5 C         138.0800  140.0080  163.0064 C.ar    1  UNL1       -0.0042
      6 C         138.2666  140.3644  164.4514 C.ar    1  UNL1       -0.0003
      7 C         142.5908  142.4115  168.7775 C.3     1  UNL1        0.1369
      8 N         141.4195  141.7299  169.4206 N.ar    1  UNL1       -0.2601
      9 C         141.0868  141.7413  170.8832 C.ar    1  UNL1        0.4220
     10 O         141.8669  142.4363  171.9595 O.2     1  UNL1       -0.2226
     11 O         139.8370  140.9356  171.0805 O.2     1  UNL1       -0.4068
     12 C         139.3973  140.4263  169.7399 C.ar    1  UNL1        0.1660
     13 C         138.2327  139.5790  169.3207 C.ar    1  UNL1        0.0392
     14 C         138.0462  139.2225  167.8757 C.ar    1  UNL1        0.0032
     15 C         139.0243  139.7134  166.8498 C.ar    1  UNL1        0.0016
     16 C         140.1889  140.5608  167.2690 C.ar    1  UNL1        0.0205
     17 C         140.3754  140.9172  168.7140 C.ar    1  UNL1        0.1000
     18 C         138.2780  138.2876  161.0696 C.3     1  UNL1        0.0616
     19 C         139.2219  138.8272  160.0362 C.3     1  UNL1        0.1684
     20 N         138.6892  139.5878  158.8582 N.am    1  UNL1       -0.2916
     21 C         138.5875  141.0833  158.9148 C.2     1  UNL1        0.2518
     22 O         139.0185  141.8182  160.1493 O.2     1  UNL1       -0.2724
     23 H         138.4063  139.1055  158.0479 H       1  UNL1        0.1504
     24 C         138.0548  141.8439  157.7367 C.3     1  UNL1        0.2064
     25 C         136.7982  141.2995  157.1248 C.3     1  UNL1        0.1080
     26 N         136.0256  141.8251  155.9514 N.3     1  UNL1       -0.2949
     27 C         136.3188  143.0249  155.1001 C.3     1  UNL1        0.0712
     28 C         137.4570  143.9954  155.2120 C.3     1  UNL1        0.0491
     29 C         138.5832  144.0059  156.2029 C.3     1  UNL1        0.1442
     30 O         138.8492  143.0484  157.3265 O.3     1  UNL1       -0.3456
     31 H         135.0887  141.9943  156.3174 H       1  UNL1        0.1233
     32 C         140.6985  138.6062  160.1808 C.1     1  UNL1        0.0927
     33 N         142.1750  138.3851  160.3254 N.1     1  UNL1       -0.1942
@<TRIPOS>BOND
     1     7     8    1
     2     8     9   ar
     3     9    10    2
     4     9    11   ar
     5    11    12   ar
     6    12    13   ar
     7    13    14   ar
     8    14    15   ar
     9    15     1    1
    10     1     2   ar
    11     2     3   ar
    12     3     4   ar
    13     4    18    1
    14    19    18    1
    15    19    32    1
    16    32    33    3
    17    19    20    1
    18    20    21   am
    19    21    22    2
    20    24    21    1
    21    24    25    1
    22    25    26    1
    23    26    27    1
    24    27    28    1
    25    28    29    1
    26    29    30    1
    27     4     5   ar
    28     5     6   ar
    29    15    16   ar
    30    16    17   ar
    31    17     8   ar
    32    17    12   ar
    33     6     1   ar
    34    30    24    1
    35    20    23    1
    36    26    31    1
@<TRIPOS>MOLECULE
*****
 33 36 0 0 0
SMALL
GASTEIGER

@<TRIPOS>ATOM
      1 C         141.6510  139.1376  165.0237 C.ar    1  UNL1        0.0000
      2 C         140.8538  138.4446  163.9588 C.ar    1  UNL1       -0.0003
      3 C         141.5138  138.0326  162.6763 C.ar    1  UNL1       -0.0042
      4 C         142.9711  138.3137  162.4589 C.ar    1  UNL1       -0.0194
      5 C         143.7684  139.0067  163.5239 C.ar    1  UNL1       -0.0042
      6 C         143.1083  139.4187  164.8063 C.ar    1  UNL1       -0.0003
      7 C         143.0669  141.8021  170.0920 C.3     1  UNL1        0.1369
      8 N         141.6554  141.3416  169.8782 N.ar    1  UNL1       -0.2601
      9 C         140.5225  141.4909  170.8500 C.ar    1  UNL1        0.4220
     10 O         140.6023  142.1268  172.2062 O.2     1  UNL1       -0.2226
     11 O         139.2960  140.8926  170.2274 O.2     1  UNL1       -0.4068
     12 C         139.6708  140.3735  168.8709 C.ar    1  UNL1        0.1660
     13 C         138.8726  139.6840  167.8044 C.ar    1  UNL1        0.0392
     14 C         139.5327  139.2721  166.5220 C.ar    1  UNL1        0.0032
     15 C         140.9909  139.5496  166.3062 C.ar    1  UNL1        0.0016
     16 C         141.7891  140.2391  167.3727 C.ar    1  UNL1        0.0205
     17 C         141.1290  140.6510  168.6551 C.ar    1  UNL1        0.1000
     18 C         143.6312  137.9017  161.1765 C.3     1  UNL1        0.0616
     19 C         143.5155  138.7719  159.9602 C.3     1  UNL1        0.1684
     20 N         143.1512  138.1666  158.6369 N.am    1  UNL1       -0.2916
     21 C         141.7091  138.0208  158.2505 C.2     1  UNL1        0.2518
     22 O         140.6315  138.4802  159.1872 O.2     1  UNL1       -0.2724
     23 H         143.8585  137.8651  158.0221 H       1  UNL1        0.1504
     24 C         141.3448  137.4156  156.9272 C.3     1  UNL1        0.2064
     25 C         140.0155  137.8270  156.3673 C.3     1  UNL1        0.1080
     26 N         139.3710  137.4034  155.0808 N.3     1  UNL1       -0.2949
     27 C         139.8967  136.4638  154.0363 C.3     1  UNL1        0.0712
     28 C         141.1967  135.7157  154.0205 C.3     1  UNL1        0.0491
     29 C         142.2922  135.7225  155.0453 C.3     1  UNL1        0.1442
     30 O         142.3581  136.4790  156.3389 O.3     1  UNL1       -0.3456
     31 H         139.2044  138.2758  154.5791 H       1  UNL1        0.1233
     32 C         143.7641  140.2473  160.0671 C.1     1  UNL1        0.0927
     33 N         144.0127  141.7226  160.1740 N.1     1  UNL1       -0.1942
@<TRIPOS>BOND
     1     7     8    1
     2     8     9   ar
     3     9    10    2
     4     9    11   ar
     5    11    12   ar
     6    12    13   ar
     7    13    14   ar
     8    14    15   ar
     9    15     1    1
    10     1     2   ar
    11     2     3   ar
    12     3     4   ar
    13     4    18    1
    14    19    18    1
    15    19    32    1
    16    32    33    3
    17    19    20    1
    18    20    21   am
    19    21    22    2
    20    24    21    1
    21    24    25    1
    22    25    26    1
    23    26    27    1
    24    27    28    1
    25    28    29    1
    26    29    30    1
    27     4     5   ar
    28     5     6   ar
    29    15    16   ar
    30    16    17   ar
    31    17     8   ar
    32    17    12   ar
    33     6     1   ar
    34    30    24    1
    35    20    23    1
    36    26    31    1
@<TRIPOS>MOLECULE
*****
 33 36 0 0 0
SMALL
GASTEIGER

@<TRIPOS>ATOM
      1 C         141.4769  138.3870  160.1838 C.ar    1  UNL1        0.0000
      2 C         142.1916  138.0376  161.4555 C.ar    1  UNL1       -0.0003
      3 C         141.4096  137.7876  162.7109 C.ar    1  UNL1       -0.0042
      4 C         139.9130  137.8870  162.6946 C.ar    1  UNL1       -0.0194
      5 C         139.1983  138.2364  161.4229 C.ar    1  UNL1       -0.0042
      6 C         139.9803  138.4864  160.1675 C.ar    1  UNL1       -0.0003
      7 C         145.1363  142.4457  157.9640 C.3     1  UNL1        0.1369
      8 N         144.7908  141.2431  157.1367 N.ar    1  UNL1       -0.2601
      9 C         145.2939  140.9497  155.7544 C.ar    1  UNL1        0.4220
     10 O         146.2308  141.8075  154.9566 O.2     1  UNL1       -0.2226
     11 O         144.6956  139.6480  155.3100 O.2     1  UNL1       -0.4068
     12 C         143.8228  139.1368  156.4176 C.ar    1  UNL1        0.1660
     13 C         142.9820  137.9011  156.5439 C.ar    1  UNL1        0.0392
     14 C         142.2001  137.6512  157.7993 C.ar    1  UNL1        0.0032
     15 C         142.2589  138.6370  158.9284 C.ar    1  UNL1        0.0016
     16 C         143.0997  139.8727  158.8020 C.ar    1  UNL1        0.0205
     17 C         143.8816  140.1226  157.5466 C.ar    1  UNL1        0.1000
     18 C         139.1310  137.6371  163.9500 C.3     1  UNL1        0.0616
     19 C         138.8825  138.7585  164.9146 C.3     1  UNL1        0.1684
     20 N         139.4354  140.1246  164.6351 N.am    1  UNL1       -0.2916
     21 C         138.6582  141.0896  163.7896 C.2     1  UNL1        0.2518
     22 O         137.3283  140.6886  163.2237 O.2     1  UNL1       -0.2724
     23 H         140.3083  140.3878  165.0065 H       1  UNL1        0.1504
     24 C         139.2111  142.4557  163.5100 C.3     1  UNL1        0.2064
     25 C         138.3446  143.3498  162.6736 C.3     1  UNL1        0.1080
     26 N         138.6104  144.7561  162.2244 N.3     1  UNL1       -0.2949
     27 C         139.8083  145.6156  162.5007 C.3     1  UNL1        0.0712
     28 C         141.0362  145.2811  163.2946 C.3     1  UNL1        0.0491
     29 C         141.3697  144.0044  164.0081 C.3     1  UNL1        0.1442
     30 O         140.5574  142.7470  164.1040 O.3     1  UNL1       -0.3456
     31 H         137.8219  145.2930  162.5855 H       1  UNL1        0.1233
     32 C         138.0812  138.5139  166.1589 C.1     1  UNL1        0.0927
     33 N         137.2799  138.2693  167.4031 N.1     1  UNL1       -0.1942
@<TRIPOS>BOND
     1     7     8    1
     2     8     9   ar
     3     9    10    2
     4     9    11   ar
     5    11    12   ar
     6    12    13   ar
     7    13    14   ar
     8    14    15   ar
     9    15     1    1
    10     1     2   ar
    11     2     3   ar
    12     3     4   ar
    13     4    18    1
    14    19    18    1
    15    19    32    1
    16    32    33    3
    17    19    20    1
    18    20    21   am
    19    21    22    2
    20    24    21    1
    21    24    25    1
    22    25    26    1
    23    26    27    1
    24    27    28    1
    25    28    29    1
    26    29    30    1
    27     4     5   ar
    28     5     6   ar
    29    15    16   ar
    30    16    17   ar
    31    17     8   ar
    32    17    12   ar
    33     6     1   ar
    34    30    24    1
    35    20    23    1
    36    26    31    1
@<TRIPOS>MOLECULE
*****
 33 36 0 0 0
SMALL
GASTEIGER

@<TRIPOS>ATOM
      1 C         142.3215  141.0752  164.7168 C.ar    1  UNL1        0.0000
      2 C         143.7963  141.2338  164.4938 C.ar    1  UNL1       -0.0003
      3 C         144.4328  140.6707  163.2577 C.ar    1  UNL1       -0.0042
      4 C         143.5945  139.9490  162.2446 C.ar    1  UNL1       -0.0194
      5 C         142.1196  139.7904  162.4676 C.ar    1  UNL1       -0.0042
      6 C         141.4831  140.3535  163.7037 C.ar    1  UNL1       -0.0003
      7 C         142.4928  140.2780  170.5586 C.3     1  UNL1        0.1369
      8 N         141.5831  141.3269  169.9908 N.ar    1  UNL1       -0.2601
      9 C         140.6783  142.2287  170.7770 C.ar    1  UNL1        0.4220
     10 O         140.5244  142.2401  172.2690 O.2     1  UNL1       -0.2226
     11 O         139.9545  143.1172  169.8092 O.2     1  UNL1       -0.4068
     12 C         140.4119  142.7644  168.4248 C.ar    1  UNL1        0.1660
     13 C         140.0419  143.3078  167.0766 C.ar    1  UNL1        0.0392
     14 C         140.6784  142.7448  165.8406 C.ar    1  UNL1        0.0032
     15 C         141.6849  141.6383  165.9528 C.ar    1  UNL1        0.0016
     16 C         142.0549  141.0949  167.3011 C.ar    1  UNL1        0.0205
     17 C         141.4184  141.6580  168.5371 C.ar    1  UNL1        0.1000
     18 C         144.2309  139.3860  161.0086 C.3     1  UNL1        0.0616
     19 C         143.8414  139.9111  159.6587 C.3     1  UNL1        0.1684
     20 N         143.7247  138.9731  158.4940 N.am    1  UNL1       -0.2916
     21 C         142.4559  138.2035  158.2750 C.2     1  UNL1        0.2518
     22 O         141.3038  138.3720  159.2206 O.2     1  UNL1       -0.2724
     23 H         144.4809  138.8625  157.8734 H       1  UNL1        0.1504
     24 C         142.3393  137.2654  157.1103 C.3     1  UNL1        0.2064
     25 C         140.9420  136.9575  156.6601 C.3     1  UNL1        0.1080
     26 N         140.4957  136.0674  155.5382 N.3     1  UNL1       -0.2949
     27 C         141.3364  135.2654  154.5895 C.3     1  UNL1        0.0712
     28 C         142.8311  135.1554  154.5284 C.3     1  UNL1        0.0491
     29 C         143.8543  135.8203  155.4009 C.3     1  UNL1        0.1442
     30 O         143.6354  136.7593  156.5500 O.3     1  UNL1       -0.3456
     31 H         139.9396  136.6745  154.9361 H       1  UNL1        0.1233
     32 C         143.5684  141.3744  159.4733 C.1     1  UNL1        0.0927
     33 N         143.2954  142.8377  159.2880 N.1     1  UNL1       -0.1942
@<TRIPOS>BOND
     1     7     8    1
     2     8     9   ar
     3     9    10    2
     4     9    11   ar
     5    11    12   ar
     6    12    13   ar
     7    13    14   ar
     8    14    15   ar
     9    15     1    1
    10     1     2   ar
    11     2     3   ar
    12     3     4   ar
    13     4    18    1
    14    19    18    1
    15    19    32    1
    16    32    33    3
    17    19    20    1
    18    20    21   am
    19    21    22    2
    20    24    21    1
    21    24    25    1
    22    25    26    1
    23    26    27    1
    24    27    28    1
    25    28    29    1
    26    29    30    1
    27     4     5   ar
    28     5     6   ar
    29    15    16   ar
    30    16    17   ar
    31    17     8   ar
    32    17    12   ar
    33     6     1   ar
    34    30    24    1
    35    20    23    1
    36    26    31    1
@<TRIPOS>MOLECULE
*****
 33 36 0 0 0
SMALL
GASTEIGER

@<TRIPOS>ATOM
      1 C         142.7556  138.5714  161.7186 C.ar    1  UNL1        0.0000
      2 C         141.7294  137.8787  162.5653 C.ar    1  UNL1       -0.0003
      3 C         141.8895  137.8397  164.0562 C.ar    1  UNL1       -0.0042
      4 C         143.0760  138.4935  164.7004 C.ar    1  UNL1       -0.0194
      5 C         144.1022  139.1863  163.8536 C.ar    1  UNL1       -0.0042
      6 C         143.9421  139.2252  162.3628 C.ar    1  UNL1       -0.0003
      7 C         143.2561  134.9358  157.1009 C.3     1  UNL1        0.1369
      8 N         142.8543  136.3620  156.8675 N.ar    1  UNL1       -0.2601
      9 C         142.5548  136.9873  155.5374 C.ar    1  UNL1        0.4220
     10 O         142.6045  136.2961  154.2070 O.2     1  UNL1       -0.2226
     11 O         142.1969  138.4251  155.7712 O.2     1  UNL1       -0.4068
     12 C         142.2752  138.6884  157.2458 C.ar    1  UNL1        0.1660
     13 C         142.0290  139.9244  158.0591 C.ar    1  UNL1        0.0392
     14 C         142.1892  139.8854  159.5500 C.ar    1  UNL1        0.0032
     15 C         142.5955  138.6104  160.2276 C.ar    1  UNL1        0.0016
     16 C         142.8417  137.3743  159.4143 C.ar    1  UNL1        0.0205
     17 C         142.6815  137.4133  157.9234 C.ar    1  UNL1        0.1000
     18 C         143.2361  138.4546  166.1913 C.3     1  UNL1        0.0616
     19 C         142.6193  139.5265  167.0401 C.3     1  UNL1        0.1684
     20 N         141.9124  140.6809  166.3939 N.am    1  UNL1       -0.2916
     21 C         140.4443  140.5914  166.0990 C.2     1  UNL1        0.2518
     22 O         139.6832  139.3475  166.4503 O.2     1  UNL1       -0.2724
     23 H         142.4119  141.4973  166.1633 H       1  UNL1        0.1504
     24 C         139.7374  141.7459  165.4528 C.3     1  UNL1        0.2064
     25 C         138.3620  141.4561  164.9291 C.3     1  UNL1        0.1080
     26 N         137.4089  142.3864  164.2390 N.3     1  UNL1       -0.2949
     27 C         137.5957  143.8361  163.9022 C.3     1  UNL1        0.0712
     28 C         138.7819  144.7136  164.1723 C.3     1  UNL1        0.0491
     29 C         140.0742  144.3581  164.8459 C.3     1  UNL1        0.1442
     30 O         140.4994  143.0374  165.4158 O.3     1  UNL1       -0.3456
     31 H         136.5678  142.3644  164.8157 H       1  UNL1        0.1233
     32 C         142.7093  139.4440  168.5352 C.1     1  UNL1        0.0927
     33 N         142.7993  139.3615  170.0301 N.1     1  UNL1       -0.1942
@<TRIPOS>BOND
     1     7     8    1
     2     8     9   ar
     3     9    10    2
     4     9    11   ar
     5    11    12   ar
     6    12    13   ar
     7    13    14   ar
     8    14    15   ar
     9    15     1    1
    10     1     2   ar
    11     2     3   ar
    12     3     4   ar
    13     4    18    1
    14    19    18    1
    15    19    32    1
    16    32    33    3
    17    19    20    1
    18    20    21   am
    19    21    22    2
    20    24    21    1
    21    24    25    1
    22    25    26    1
    23    26    27    1
    24    27    28    1
    25    28    29    1
    26    29    30    1
    27     4     5   ar
    28     5     6   ar
    29    15    16   ar
    30    16    17   ar
    31    17     8   ar
    32    17    12   ar
    33     6     1   ar
    34    30    24    1
    35    20    23    1
    36    26    31    1
