@<TRIPOS>MOLECULE
*****
 29 32 0 0 0
SMALL
GASTEIGER

@<TRIPOS>ATOM
      1 C         138.9886  138.6135  163.3382 C.3     1  UNL1        0.1073
      2 C         139.9564  137.9793  162.3836 C.2     1  UNL1        0.3169
      3 O         139.9067  138.0705  160.8872 O.2     1  UNL1       -0.2501
      4 O         140.9826  137.2378  163.1882 O.3     1  UNL1       -0.4485
      5 C         140.6490  137.4139  164.6400 C.3     1  UNL1        0.2092
      6 C         139.4167  138.2640  164.7327 C.3     1  UNL1        0.0591
      7 C         137.8013  139.4503  162.9640 C.3     1  UNL1        0.0378
      8 C         138.5507  142.9088  161.1677 C.ar    1  UNL1        0.1751
      9 C         138.3882  141.4348  161.3933 C.ar    1  UNL1        0.0360
     10 C         137.9638  140.9243  162.7383 C.ar    1  UNL1       -0.0154
     11 C         137.7019  141.8877  163.8578 C.ar    1  UNL1        0.0360
     12 C         137.8644  143.3618  163.6322 C.ar    1  UNL1        0.1751
     13 C         138.2888  143.8723  162.2871 C.ar    1  UNL1        0.2060
     14 C         138.5574  142.6928  158.5786 C.3     1  UNL1        0.2526
     15 O         138.9751  143.4194  159.8226 O.3     1  UNL1       -0.4683
     16 O         137.6025  144.3252  164.7516 O.3     1  UNL1       -0.4683
     17 C         138.7486  144.8986  165.5312 C.3     1  UNL1        0.2526
     18 O         138.4514  145.3463  162.0615 O.3     1  UNL1       -0.4654
     19 C         139.8217  145.9562  162.0469 C.3     1  UNL1        0.2528
     20 C         138.7325  138.6900  165.9978 C.3     1  UNL1        0.0307
     21 C         139.3113  139.7980  166.8271 C.ar    1  UNL1       -0.0188
     22 C         140.0918  140.8974  166.1700 C.ar    1  UNL1       -0.0009
     23 C         140.6705  142.0054  166.9991 C.ar    1  UNL1        0.0399
     24 C         140.4687  142.0138  168.4855 C.ar    1  UNL1        0.1764
     25 C         139.6882  140.9143  169.1426 C.ar    1  UNL1        0.1761
     26 C         139.1094  139.8064  168.3135 C.ar    1  UNL1        0.0359
     27 O         139.6539  141.1875  170.6171 O.3     1  UNL1       -0.4346
     28 C         140.4133  142.4558  170.8713 C.3     1  UNL1        0.4294
     29 O         140.9169  142.9665  169.5538 O.3     1  UNL1       -0.4346
@<TRIPOS>BOND
     1    14    15    1
     2    15     8    1
     3     8     9   ar
     4     9    10   ar
     5    10     7    1
     6     1     7    1
     7     1     2    1
     8     2     3    2
     9     2     4    1
    10     4     5    1
    11     5     6    1
    12     6    20    1
    13    20    21    1
    14    21    22   ar
    15    22    23   ar
    16    23    24   ar
    17    24    25   ar
    18    25    26   ar
    19    25    27    1
    20    27    28    1
    21    28    29    1
    22    10    11   ar
    23    11    12   ar
    24    12    16    1
    25    16    17    1
    26    12    13   ar
    27    13    18    1
    28    18    19    1
    29    13     8   ar
    30     6     1    1
    31    26    21   ar
    32    29    24    1
@<TRIPOS>MOLECULE
*****
 29 32 0 0 0
SMALL
GASTEIGER

@<TRIPOS>ATOM
      1 C         140.7170  140.4236  169.1126 C.3     1  UNL1        0.1073
      2 C         140.5455  141.4068  170.2324 C.2     1  UNL1        0.3169
      3 O         139.2553  142.0432  170.6571 O.2     1  UNL1       -0.2501
      4 O         141.8908  141.6418  170.8530 O.3     1  UNL1       -0.4485
      5 C         142.8937  140.8038  170.1167 C.3     1  UNL1        0.2092
      6 C         142.1682  140.0510  169.0411 C.3     1  UNL1        0.0591
      7 C         139.6284  139.9042  168.2209 C.3     1  UNL1        0.0378
      8 C         139.6789  142.3645  165.1073 C.ar    1  UNL1        0.1751
      9 C         139.8063  141.8526  166.5115 C.ar    1  UNL1        0.0360
     10 C         139.5011  140.4162  166.8167 C.ar    1  UNL1       -0.0154
     11 C         139.0685  139.4915  165.7177 C.ar    1  UNL1        0.0360
     12 C         138.9411  140.0033  164.3134 C.ar    1  UNL1        0.1751
     13 C         139.2464  141.4399  164.0082 C.ar    1  UNL1        0.2060
     14 C         138.9338  144.8516  165.0101 C.3     1  UNL1        0.2526
     15 O         139.9842  143.8011  164.8021 O.3     1  UNL1       -0.4683
     16 O         138.5086  139.0786  163.2144 O.3     1  UNL1       -0.4683
     17 C         138.9695  137.6512  163.2104 C.3     1  UNL1        0.2526
     18 O         139.1190  141.9518  162.6041 O.3     1  UNL1       -0.4654
     19 C         137.8586  142.6376  162.1672 C.3     1  UNL1        0.2528
     20 C         142.7856  139.0936  168.0653 C.3     1  UNL1        0.0307
     21 C         142.8357  139.4380  166.6061 C.ar    1  UNL1       -0.0188
     22 C         143.1240  140.8461  166.1774 C.ar    1  UNL1       -0.0009
     23 C         143.1741  141.1905  164.7183 C.ar    1  UNL1        0.0399
     24 C         142.9358  140.1267  163.6880 C.ar    1  UNL1        0.1764
     25 C         142.6474  138.7185  164.1168 C.ar    1  UNL1        0.1761
     26 C         142.5973  138.3741  165.5758 C.ar    1  UNL1        0.0359
     27 O         142.4550  137.8883  162.8824 O.3     1  UNL1       -0.4346
     28 C         142.6244  138.7834  161.6907 C.3     1  UNL1        0.4294
     29 O         142.9216  140.1668  162.1886 O.3     1  UNL1       -0.4346
@<TRIPOS>BOND
     1    14    15    1
     2    15     8    1
     3     8     9   ar
     4     9    10   ar
     5    10     7    1
     6     1     7    1
     7     1     2    1
     8     2     3    2
     9     2     4    1
    10     4     5    1
    11     5     6    1
    12     6    20    1
    13    20    21    1
    14    21    22   ar
    15    22    23   ar
    16    23    24   ar
    17    24    25   ar
    18    25    26   ar
    19    25    27    1
    20    27    28    1
    21    28    29    1
    22    10    11   ar
    23    11    12   ar
    24    12    16    1
    25    16    17    1
    26    12    13   ar
    27    13    18    1
    28    18    19    1
    29    13     8   ar
    30     6     1    1
    31    26    21   ar
    32    29    24    1
@<TRIPOS>MOLECULE
*****
 29 32 0 0 0
SMALL
GASTEIGER

@<TRIPOS>ATOM
      1 C         140.7143  140.4947  169.1047 C.3     1  UNL1        0.1073
      2 C         140.5590  141.5020  170.2052 C.2     1  UNL1        0.3169
      3 O         139.2747  142.1460  170.6363 O.2     1  UNL1       -0.2501
      4 O         141.9135  141.7524  170.7991 O.3     1  UNL1       -0.4485
      5 C         142.9060  140.8997  170.0655 C.3     1  UNL1        0.2092
      6 C         142.1648  140.1224  169.0184 C.3     1  UNL1        0.0591
      7 C         139.6125  139.9545  168.2420 C.3     1  UNL1        0.0378
      8 C         138.8507  139.9413  164.3472 C.ar    1  UNL1        0.1751
      9 C         138.9897  139.4742  165.7658 C.ar    1  UNL1        0.0360
     10 C         139.4735  140.4215  166.8233 C.ar    1  UNL1       -0.0154
     11 C         139.8182  141.8360  166.4623 C.ar    1  UNL1        0.0360
     12 C         139.6791  142.3032  165.0436 C.ar    1  UNL1        0.1751
     13 C         139.1954  141.3558  163.9860 C.ar    1  UNL1        0.2060
     14 C         139.0598  137.6791  163.0867 C.3     1  UNL1        0.2526
     15 O         138.3669  138.9939  163.2896 O.3     1  UNL1       -0.4683
     16 O         140.0239  143.7177  164.6826 O.3     1  UNL1       -0.4683
     17 C         139.0302  144.8159  164.9205 C.3     1  UNL1        0.2526
     18 O         139.0563  141.8229  162.5674 O.3     1  UNL1       -0.4654
     19 C         137.8341  142.5827  162.1444 C.3     1  UNL1        0.2528
     20 C         142.7682  139.1446  168.0541 C.3     1  UNL1        0.0307
     21 C         142.8410  139.4791  166.5936 C.ar    1  UNL1       -0.0188
     22 C         143.1315  140.8852  166.1599 C.ar    1  UNL1       -0.0009
     23 C         143.2043  141.2198  164.6995 C.ar    1  UNL1        0.0399
     24 C         142.9865  140.1481  163.6728 C.ar    1  UNL1        0.1764
     25 C         142.6960  138.7419  164.1066 C.ar    1  UNL1        0.1761
     26 C         142.6232  138.4073  165.5670 C.ar    1  UNL1        0.0359
     27 O         142.5266  137.9025  162.8750 O.3     1  UNL1       -0.4346
     28 C         142.7124  138.7900  161.6801 C.3     1  UNL1        0.4294
     29 O         142.9967  140.1779  162.1732 O.3     1  UNL1       -0.4346
@<TRIPOS>BOND
     1    14    15    1
     2    15     8    1
     3     8     9   ar
     4     9    10   ar
     5    10     7    1
     6     1     7    1
     7     1     2    1
     8     2     3    2
     9     2     4    1
    10     4     5    1
    11     5     6    1
    12     6    20    1
    13    20    21    1
    14    21    22   ar
    15    22    23   ar
    16    23    24   ar
    17    24    25   ar
    18    25    26   ar
    19    25    27    1
    20    27    28    1
    21    28    29    1
    22    10    11   ar
    23    11    12   ar
    24    12    16    1
    25    16    17    1
    26    12    13   ar
    27    13    18    1
    28    18    19    1
    29    13     8   ar
    30     6     1    1
    31    26    21   ar
    32    29    24    1
@<TRIPOS>MOLECULE
*****
 29 32 0 0 0
SMALL
GASTEIGER

@<TRIPOS>ATOM
      1 C         142.8277  140.2728  167.4808 C.3     1  UNL1        0.1073
      2 C         142.7461  139.9769  168.9490 C.2     1  UNL1        0.3169
      3 O         142.8847  138.6256  169.5852 O.2     1  UNL1       -0.2501
      4 O         142.5014  141.2696  169.6695 O.3     1  UNL1       -0.4485
      5 C         142.4319  142.3645  168.6465 C.3     1  UNL1        0.2092
      6 C         142.6335  141.7484  167.2938 C.3     1  UNL1        0.0591
      7 C         143.0623  139.2693  166.3908 C.3     1  UNL1        0.0378
      8 C         141.0788  137.8927  163.2411 C.ar    1  UNL1        0.1751
      9 C         142.2117  138.3131  164.1298 C.ar    1  UNL1        0.0360
     10 C         141.9295  138.8488  165.5021 C.ar    1  UNL1       -0.0154
     11 C         140.5143  138.9640  165.9858 C.ar    1  UNL1        0.0360
     12 C         139.3813  138.5435  165.0971 C.ar    1  UNL1        0.1751
     13 C         139.6636  138.0079  163.7247 C.ar    1  UNL1        0.2060
     14 C         142.5985  137.7847  161.1366 C.3     1  UNL1        0.2526
     15 O         141.3611  137.3570  161.8687 O.3     1  UNL1       -0.4683
     16 O         137.9661  138.6588  165.5808 O.3     1  UNL1       -0.4683
     17 C         137.6674  138.5890  167.0491 C.3     1  UNL1        0.2526
     18 O         138.5307  137.5874  162.8360 O.3     1  UNL1       -0.4654
     19 C         137.9234  138.5702  161.8793 C.3     1  UNL1        0.2528
     20 C         142.6399  142.4794  165.9840 C.3     1  UNL1        0.0307
     21 C         141.3622  142.6580  165.2185 C.ar    1  UNL1       -0.0188
     22 C         140.2053  143.3761  165.8473 C.ar    1  UNL1       -0.0009
     23 C         138.9277  143.5547  165.0819 C.ar    1  UNL1        0.0399
     24 C         138.8072  143.0150  163.6875 C.ar    1  UNL1        0.1764
     25 C         139.9642  142.2968  163.0586 C.ar    1  UNL1        0.1761
     26 C         141.2418  142.1182  163.8241 C.ar    1  UNL1        0.0359
     27 O         139.5541  141.8765  161.6784 O.3     1  UNL1       -0.4346
     28 C         138.1436  142.3350  161.4542 C.3     1  UNL1        0.4294
     29 O         137.6819  143.0386  162.6959 O.3     1  UNL1       -0.4346
@<TRIPOS>BOND
     1    14    15    1
     2    15     8    1
     3     8     9   ar
     4     9    10   ar
     5    10     7    1
     6     1     7    1
     7     1     2    1
     8     2     3    2
     9     2     4    1
    10     4     5    1
    11     5     6    1
    12     6    20    1
    13    20    21    1
    14    21    22   ar
    15    22    23   ar
    16    23    24   ar
    17    24    25   ar
    18    25    26   ar
    19    25    27    1
    20    27    28    1
    21    28    29    1
    22    10    11   ar
    23    11    12   ar
    24    12    16    1
    25    16    17    1
    26    12    13   ar
    27    13    18    1
    28    18    19    1
    29    13     8   ar
    30     6     1    1
    31    26    21   ar
    32    29    24    1
@<TRIPOS>MOLECULE
*****
 29 32 0 0 0
SMALL
GASTEIGER

@<TRIPOS>ATOM
      1 C         142.1570  141.2991  169.0898 C.3     1  UNL1        0.1073
      2 C         142.8624  142.4878  169.6723 C.2     1  UNL1        0.3169
      3 O         144.3384  142.7502  169.6201 O.2     1  UNL1       -0.2501
      4 O         141.8328  143.3683  170.3162 O.3     1  UNL1       -0.4485
      5 C         140.4909  142.7237  170.1317 C.3     1  UNL1        0.2092
      6 C         140.6913  141.4449  169.3737 C.3     1  UNL1        0.0591
      7 C         142.8037  140.1639  168.3528 C.3     1  UNL1        0.0378
      8 C         142.4273  138.8176  164.6386 C.ar    1  UNL1        0.1751
      9 C         142.4558  138.8512  166.1379 C.ar    1  UNL1        0.0360
     10 C         142.7751  140.1302  166.8534 C.ar    1  UNL1       -0.0154
     11 C         143.0659  141.3757  166.0697 C.ar    1  UNL1        0.0360
     12 C         143.0374  141.3421  164.5702 C.ar    1  UNL1        0.1751
     13 C         142.7180  140.0630  163.8547 C.ar    1  UNL1        0.2060
     14 C         140.7626  137.3508  163.2868 C.3     1  UNL1        0.2526
     15 O         142.1079  137.5385  163.9230 O.3     1  UNL1       -0.4683
     16 O         143.3281  142.5875  163.7865 O.3     1  UNL1       -0.4683
     17 C         144.7185  142.8541  163.2906 C.3     1  UNL1        0.2526
     18 O         142.6895  140.0294  162.3553 O.3     1  UNL1       -0.4654
     19 C         143.9107  139.6113  161.5911 C.3     1  UNL1        0.2528
     20 C         139.6151  140.4810  168.9705 C.3     1  UNL1        0.0307
     21 C         139.2737  140.3015  167.5208 C.ar    1  UNL1       -0.0188
     22 C         138.5784  139.0538  167.0630 C.ar    1  UNL1       -0.0009
     23 C         138.2370  138.8743  165.6135 C.ar    1  UNL1        0.0399
     24 C         138.5909  139.9425  164.6217 C.ar    1  UNL1        0.1764
     25 C         139.2862  141.1903  165.0796 C.ar    1  UNL1        0.1761
     26 C         139.6276  141.3698  166.5291 C.ar    1  UNL1        0.0359
     27 O         139.5080  142.0640  163.8806 O.3     1  UNL1       -0.4346
     28 C         138.9497  141.3561  162.6817 C.3     1  UNL1        0.4294
     29 O         138.3829  140.0450  163.1398 O.3     1  UNL1       -0.4346
@<TRIPOS>BOND
     1    14    15    1
     2    15     8    1
     3     8     9   ar
     4     9    10   ar
     5    10     7    1
     6     1     7    1
     7     1     2    1
     8     2     3    2
     9     2     4    1
    10     4     5    1
    11     5     6    1
    12     6    20    1
    13    20    21    1
    14    21    22   ar
    15    22    23   ar
    16    23    24   ar
    17    24    25   ar
    18    25    26   ar
    19    25    27    1
    20    27    28    1
    21    28    29    1
    22    10    11   ar
    23    11    12   ar
    24    12    16    1
    25    16    17    1
    26    12    13   ar
    27    13    18    1
    28    18    19    1
    29    13     8   ar
    30     6     1    1
    31    26    21   ar
    32    29    24    1
@<TRIPOS>MOLECULE
*****
 29 32 0 0 0
SMALL
GASTEIGER

@<TRIPOS>ATOM
      1 C         142.3304  141.5040  168.9814 C.3     1  UNL1        0.1073
      2 C         141.4666  142.0669  170.0710 C.2     1  UNL1        0.3169
      3 O         141.3254  143.5181  170.4232 O.2     1  UNL1       -0.2501
      4 O         140.7687  140.9238  170.7465 O.3     1  UNL1       -0.4485
      5 C         141.2012  139.6544  170.0744 C.3     1  UNL1        0.2092
      6 C         142.1663  140.0130  168.9836 C.3     1  UNL1        0.0591
      7 C         143.2046  142.2935  168.0528 C.3     1  UNL1        0.0378
      8 C         140.9401  143.0364  164.8795 C.ar    1  UNL1        0.1751
      9 C         141.3577  142.8254  166.3046 C.ar    1  UNL1        0.0360
     10 C         142.7869  142.5045  166.6277 C.ar    1  UNL1       -0.0154
     11 C         143.7985  142.3948  165.5256 C.ar    1  UNL1        0.0360
     12 C         143.3809  142.6059  164.1004 C.ar    1  UNL1        0.1751
     13 C         141.9516  142.9267  163.7773 C.ar    1  UNL1        0.2060
     14 C         139.0003  144.7578  164.7236 C.3     1  UNL1        0.2526
     15 O         139.5108  143.3573  164.5565 O.3     1  UNL1       -0.4683
     16 O         144.3925  142.4961  162.9983 O.3     1  UNL1       -0.4683
     17 C         145.6994  141.8031  163.2463 C.3     1  UNL1        0.2526
     18 O         141.5340  143.1378  162.3522 O.3     1  UNL1       -0.4654
     19 C         141.6355  144.5011  161.7350 C.3     1  UNL1        0.2528
     20 C         142.8478  139.0497  168.0575 C.3     1  UNL1        0.0307
     21 C         142.5267  139.0634  166.5922 C.ar    1  UNL1       -0.0188
     22 C         141.1148  139.2825  166.1358 C.ar    1  UNL1       -0.0009
     23 C         140.7938  139.2962  164.6707 C.ar    1  UNL1        0.0399
     24 C         141.8847  139.0907  163.6619 C.ar    1  UNL1        0.1764
     25 C         143.2967  138.8716  164.1183 C.ar    1  UNL1        0.1761
     26 C         143.6178  138.8579  165.5835 C.ar    1  UNL1        0.0359
     27 O         144.1558  138.6985  162.9009 O.3     1  UNL1       -0.4346
     28 C         143.2748  138.8107  161.6922 C.3     1  UNL1        0.4294
     29 O         141.8712  139.0531  162.1624 O.3     1  UNL1       -0.4346
@<TRIPOS>BOND
     1    14    15    1
     2    15     8    1
     3     8     9   ar
     4     9    10   ar
     5    10     7    1
     6     1     7    1
     7     1     2    1
     8     2     3    2
     9     2     4    1
    10     4     5    1
    11     5     6    1
    12     6    20    1
    13    20    21    1
    14    21    22   ar
    15    22    23   ar
    16    23    24   ar
    17    24    25   ar
    18    25    26   ar
    19    25    27    1
    20    27    28    1
    21    28    29    1
    22    10    11   ar
    23    11    12   ar
    24    12    16    1
    25    16    17    1
    26    12    13   ar
    27    13    18    1
    28    18    19    1
    29    13     8   ar
    30     6     1    1
    31    26    21   ar
    32    29    24    1
@<TRIPOS>MOLECULE
*****
 29 32 0 0 0
SMALL
GASTEIGER

@<TRIPOS>ATOM
      1 C         141.4621  140.5186  167.8804 C.3     1  UNL1        0.1073
      2 C         142.4979  140.1662  168.9065 C.2     1  UNL1        0.3169
      3 O         143.0890  138.8060  169.1316 O.2     1  UNL1       -0.2501
      4 O         142.8389  141.4127  169.6681 O.3     1  UNL1       -0.4485
      5 C         142.0138  142.5355  169.1126 C.3     1  UNL1        0.2092
      6 C         141.1629  141.9829  168.0078 C.3     1  UNL1        0.0591
      7 C         140.8354  139.5728  166.8992 C.3     1  UNL1        0.0378
      8 C         141.5909  138.0761  163.3021 C.ar    1  UNL1        0.1751
      9 C         140.8587  138.4483  164.5572 C.ar    1  UNL1        0.0360
     10 C         141.5676  139.2006  165.6440 C.ar    1  UNL1       -0.0154
     11 C         143.0089  139.5807  165.4759 C.ar    1  UNL1        0.0360
     12 C         143.7412  139.2085  164.2207 C.ar    1  UNL1        0.1751
     13 C         143.0322  138.4562  163.1338 C.ar    1  UNL1        0.2060
     14 C         139.8242  138.0052  161.3985 C.3     1  UNL1        0.2526
     15 O         140.8819  137.3238  162.2152 O.3     1  UNL1       -0.4683
     16 O         145.1824  139.5886  164.0525 O.3     1  UNL1       -0.4683
     17 C         145.5610  141.0271  163.8593 C.3     1  UNL1        0.2526
     18 O         143.7644  138.0840  161.8787 O.3     1  UNL1       -0.4654
     19 C         143.7539  139.0127  160.7008 C.3     1  UNL1        0.2528
     20 C         140.1846  142.7585  167.1763 C.3     1  UNL1        0.0307
     21 C         140.5866  143.2653  165.8229 C.ar    1  UNL1       -0.0188
     22 C         141.9387  142.9291  165.2674 C.ar    1  UNL1       -0.0009
     23 C         142.3408  143.4359  163.9141 C.ar    1  UNL1        0.0399
     24 C         141.3906  144.2788  163.1163 C.ar    1  UNL1        0.1764
     25 C         140.0385  144.6151  163.6717 C.ar    1  UNL1        0.1761
     26 C         139.6364  144.1083  165.0251 C.ar    1  UNL1        0.0359
     27 O         139.3196  145.4601  162.6622 O.3     1  UNL1       -0.4346
     28 C         140.2276  145.6462  161.4828 C.3     1  UNL1        0.4294
     29 O         141.5075  144.9161  161.7634 O.3     1  UNL1       -0.4346
@<TRIPOS>BOND
     1    14    15    1
     2    15     8    1
     3     8     9   ar
     4     9    10   ar
     5    10     7    1
     6     1     7    1
     7     1     2    1
     8     2     3    2
     9     2     4    1
    10     4     5    1
    11     5     6    1
    12     6    20    1
    13    20    21    1
    14    21    22   ar
    15    22    23   ar
    16    23    24   ar
    17    24    25   ar
    18    25    26   ar
    19    25    27    1
    20    27    28    1
    21    28    29    1
    22    10    11   ar
    23    11    12   ar
    24    12    16    1
    25    16    17    1
    26    12    13   ar
    27    13    18    1
    28    18    19    1
    29    13     8   ar
    30     6     1    1
    31    26    21   ar
    32    29    24    1
@<TRIPOS>MOLECULE
*****
 29 32 0 0 0
SMALL
GASTEIGER

@<TRIPOS>ATOM
      1 C         139.9739  140.8400  168.2394 C.3     1  UNL1        0.1073
      2 C         140.4734  140.5972  169.6327 C.2     1  UNL1        0.3169
      3 O         140.1980  139.3828  170.4690 O.2     1  UNL1       -0.2501
      4 O         141.2969  141.7820  170.0430 O.3     1  UNL1       -0.4485
      5 C         141.3062  142.7571  168.9031 C.3     1  UNL1        0.2092
      6 C         140.4885  142.1749  167.7885 C.3     1  UNL1        0.0591
      7 C         139.1111  139.9111  167.4376 C.3     1  UNL1        0.0378
      8 C         141.6864  138.4754  164.7812 C.ar    1  UNL1        0.1751
      9 C         141.1401  139.1276  166.0166 C.ar    1  UNL1        0.0360
     10 C         139.6575  139.2589  166.2023 C.ar    1  UNL1       -0.0154
     11 C         138.7211  138.7380  165.1526 C.ar    1  UNL1        0.0360
     12 C         139.2674  138.0858  163.9171 C.ar    1  UNL1        0.1751
     13 C         140.7501  137.9545  163.7314 C.ar    1  UNL1        0.2060
     14 C         144.1010  138.7297  165.7058 C.3     1  UNL1        0.2526
     15 O         143.1690  138.3441  164.5955 O.3     1  UNL1       -0.4683
     16 O         138.3310  137.5649  162.8674 O.3     1  UNL1       -0.4683
     17 C         137.8428  138.4750  161.7796 C.3     1  UNL1        0.2526
     18 O         141.2964  137.3023  162.4961 O.3     1  UNL1       -0.4654
     19 C         141.6032  138.1307  161.2838 C.3     1  UNL1        0.2528
     20 C         140.2308  142.8152  166.4567 C.3     1  UNL1        0.0307
     21 C         141.0782  142.4521  165.2734 C.ar    1  UNL1       -0.0188
     22 C         140.4302  142.0760  163.9740 C.ar    1  UNL1       -0.0009
     23 C         141.2775  141.7129  162.7907 C.ar    1  UNL1        0.0399
     24 C         142.7730  141.7260  162.9069 C.ar    1  UNL1        0.1764
     25 C         143.4210  142.1021  164.2063 C.ar    1  UNL1        0.1761
     26 C         142.5737  142.4651  165.3896 C.ar    1  UNL1        0.0359
     27 O         144.9077  142.0261  164.0220 O.3     1  UNL1       -0.4346
     28 C         145.1785  141.6031  162.6086 C.3     1  UNL1        0.4294
     29 O         143.8591  141.4176  161.9194 O.3     1  UNL1       -0.4346
@<TRIPOS>BOND
     1    14    15    1
     2    15     8    1
     3     8     9   ar
     4     9    10   ar
     5    10     7    1
     6     1     7    1
     7     1     2    1
     8     2     3    2
     9     2     4    1
    10     4     5    1
    11     5     6    1
    12     6    20    1
    13    20    21    1
    14    21    22   ar
    15    22    23   ar
    16    23    24   ar
    17    24    25   ar
    18    25    26   ar
    19    25    27    1
    20    27    28    1
    21    28    29    1
    22    10    11   ar
    23    11    12   ar
    24    12    16    1
    25    16    17    1
    26    12    13   ar
    27    13    18    1
    28    18    19    1
    29    13     8   ar
    30     6     1    1
    31    26    21   ar
    32    29    24    1
@<TRIPOS>MOLECULE
*****
 29 32 0 0 0
SMALL
GASTEIGER

@<TRIPOS>ATOM
      1 C         141.8274  141.4675  169.1904 C.3     1  UNL1        0.1073
      2 C         142.1994  142.6314  170.0604 C.2     1  UNL1        0.3169
      3 O         143.5844  143.1677  170.2708 O.2     1  UNL1       -0.2501
      4 O         140.9433  143.1649  170.6831 O.3     1  UNL1       -0.4485
      5 C         139.7950  142.3306  170.1979 C.3     1  UNL1        0.2092
      6 C         140.3414  141.2816  169.2754 C.3     1  UNL1        0.0591
      7 C         142.7750  140.6355  168.3780 C.3     1  UNL1        0.0378
      8 C         143.3889  142.6665  165.0243 C.ar    1  UNL1        0.1751
      9 C         143.1788  142.3603  166.4775 C.ar    1  UNL1        0.0360
     10 C         142.9850  140.9418  166.9247 C.ar    1  UNL1       -0.0154
     11 C         143.0013  139.8294  165.9187 C.ar    1  UNL1        0.0360
     12 C         143.2114  140.1355  164.4653 C.ar    1  UNL1        0.1751
     13 C         143.4052  141.5542  164.0181 C.ar    1  UNL1        0.2060
     14 C         142.4492  144.8317  163.9385 C.3     1  UNL1        0.2526
     15 O         143.5827  144.0851  164.5770 O.3     1  UNL1       -0.4683
     16 O         143.2276  139.0231  163.4592 O.3     1  UNL1       -0.4683
     17 C         142.1404  137.9898  163.4660 C.3     1  UNL1        0.2526
     18 O         143.6153  141.8603  162.5648 O.3     1  UNL1       -0.4654
     19 C         145.0063  141.9493  162.0105 C.3     1  UNL1        0.2528
     20 C         139.5421  140.2311  168.5629 C.3     1  UNL1        0.0307
     21 C         139.4043  140.2776  167.0699 C.ar    1  UNL1       -0.0188
     22 C         139.6161  141.5690  166.3370 C.ar    1  UNL1       -0.0009
     23 C         139.4783  141.6155  164.8441 C.ar    1  UNL1        0.0399
     24 C         139.1286  140.3705  164.0841 C.ar    1  UNL1        0.1764
     25 C         138.9168  139.0790  164.8170 C.ar    1  UNL1        0.1761
     26 C         139.0546  139.0325  166.3099 C.ar    1  UNL1        0.0359
     27 O         138.5836  138.0218  163.8064 O.3     1  UNL1       -0.4346
     28 C         138.5896  138.6599  162.4489 C.3     1  UNL1        0.4294
     29 O         138.9264  140.1115  162.6205 O.3     1  UNL1       -0.4346
@<TRIPOS>BOND
     1    14    15    1
     2    15     8    1
     3     8     9   ar
     4     9    10   ar
     5    10     7    1
     6     1     7    1
     7     1     2    1
     8     2     3    2
     9     2     4    1
    10     4     5    1
    11     5     6    1
    12     6    20    1
    13    20    21    1
    14    21    22   ar
    15    22    23   ar
    16    23    24   ar
    17    24    25   ar
    18    25    26   ar
    19    25    27    1
    20    27    28    1
    21    28    29    1
    22    10    11   ar
    23    11    12   ar
    24    12    16    1
    25    16    17    1
    26    12    13   ar
    27    13    18    1
    28    18    19    1
    29    13     8   ar
    30     6     1    1
    31    26    21   ar
    32    29    24    1
