@<TRIPOS>MOLECULE
*****
 34 37 0 0 0
SMALL
GASTEIGER

@<TRIPOS>ATOM
      1 C         140.2753  141.4803  164.9585 C.ar    1  UNL1        0.1633
      2 N         140.9959  140.5350  164.0436 N.ar    1  UNL1       -0.2122
      3 C         141.3915  140.9793  162.6666 C.ar    1  UNL1        0.1322
      4 C         141.0665  142.3689  162.2046 C.ar    1  UNL1        0.0482
      5 C         140.3458  143.3142  163.1196 C.ar    1  UNL1        0.0807
      6 N         139.9502  142.8698  164.4965 N.ar    1  UNL1       -0.2294
      7 C         140.1619  144.6132  162.3925 C.3     1  UNL1        0.1457
      8 C         139.4870  145.0461  163.6602 C.3     1  UNL1        0.0297
      9 C         139.8369  146.0028  161.9305 C.3     1  UNL1        0.0297
     10 S         140.7689  144.4708  161.0282 S.O2    1  UNL1       -0.0039
     11 O         140.3170  145.8901  160.8514 O.2     1  UNL1       -0.1724
     12 O         141.2814  144.6251  159.6270 O.2     1  UNL1       -0.1724
     13 C         141.3280  143.0838  160.9120 C.3     1  UNL1        0.1814
     14 N         142.1122  140.0341  161.7516 N.pl3   1  UNL1       -0.2900
     15 C         141.3439  139.2410  160.7363 C.3     1  UNL1        0.1242
     16 C         142.0645  138.2958  159.8213 C.3     1  UNL1        0.1636
     17 O         143.5534  138.1436  159.9216 O.3     1  UNL1       -0.3502
     18 C         144.3217  138.9366  160.9369 C.3     1  UNL1        0.1618
     19 C         143.6010  139.8819  161.8520 C.3     1  UNL1        0.1038
     20 C         144.3693  140.6749  162.8673 C.3     1  UNL1        0.0241
     21 C         139.0883  140.1474  169.0895 C.ar    1  UNL1        0.0516
     22 C         139.9812  141.3398  168.9138 C.ar    1  UNL1        0.0148
     23 C         140.3768  141.7841  167.5368 C.ar    1  UNL1        0.0043
     24 C         139.8796  141.0360  166.3356 C.ar    1  UNL1        0.0359
     25 C         138.9867  139.8435  166.5113 C.ar    1  UNL1        0.0043
     26 C         138.5911  139.3992  167.8882 C.ar    1  UNL1        0.0148
     27 N         137.0820  138.3999  172.0342 N.am    1  UNL1       -0.2887
     28 C         137.4777  138.8443  170.6572 C.2     1  UNL1        0.3045
     29 O         136.6585  138.4298  169.4710 O.2     1  UNL1       -0.2525
     30 N         138.6927  139.7031  170.4665 N.am    1  UNL1       -0.2683
     31 H         137.6197  138.6719  172.8128 H       1  UNL1        0.1510
     32 H         139.2304  139.9751  171.2450 H       1  UNL1        0.1564
     33 C         135.8507  136.4927  173.2976 C.3     1  UNL1        0.0230
     34 C         135.8671  137.5411  172.2250 C.3     1  UNL1        0.0910
@<TRIPOS>BOND
     1    33    34    1
     2    34    27    1
     3    27    28   am
     4    28    29    2
     5    28    30   am
     6    30    21    1
     7    21    22   ar
     8    22    23   ar
     9    23    24   ar
    10    24     1    1
    11     1     2   ar
    12     2     3   ar
    13     3    14    1
    14    14    15    1
    15    15    16    1
    16    16    17    1
    17    17    18    1
    18    18    19    1
    19    19    20    1
    20     3     4   ar
    21     4     5   ar
    22     5     6   ar
    23     5     7    1
    24     7     8    1
    25     7     9    1
    26     7    10    1
    27    10    11    2
    28    10    12    2
    29    10    13    1
    30    24    25   ar
    31    25    26   ar
    32    26    21   ar
    33     6     1   ar
    34    19    14    1
    35    13     4    1
    36    27    31    1
    37    30    32    1
@<TRIPOS>MOLECULE
*****
 34 37 0 0 0
SMALL
GASTEIGER

@<TRIPOS>ATOM
      1 C         143.2109  141.8369  160.9648 C.ar    1  UNL1        0.1633
      2 N         144.2038  141.4986  159.8926 N.ar    1  UNL1       -0.2122
      3 C         144.1724  142.2302  158.5836 C.ar    1  UNL1        0.1322
      4 C         143.1482  143.3001  158.3467 C.ar    1  UNL1        0.0482
      5 C         142.1553  143.6385  159.4189 C.ar    1  UNL1        0.0807
      6 N         142.1867  142.9069  160.7280 N.ar    1  UNL1       -0.2294
      7 C         141.2689  144.7323  158.9013 C.3     1  UNL1        0.1457
      8 C         140.6097  144.6183  160.2439 C.3     1  UNL1        0.0297
      9 C         140.2447  145.8022  158.6644 C.3     1  UNL1        0.0297
     10 S         141.7140  145.0699  157.5092 S.O2    1  UNL1       -0.0039
     11 O         140.5967  146.0693  157.5634 O.2     1  UNL1       -0.1724
     12 O         141.9254  145.6165  156.1285 O.2     1  UNL1       -0.1724
     13 C         142.8754  144.1848  157.1664 C.3     1  UNL1        0.1814
     14 N         145.1654  141.8918  157.5113 N.pl3   1  UNL1       -0.2900
     15 C         146.4462  142.6651  157.4042 C.3     1  UNL1        0.1242
     16 C         147.4391  142.3268  156.3319 C.3     1  UNL1        0.1636
     17 O         147.1512  141.2152  155.3668 O.3     1  UNL1       -0.3502
     18 C         145.8703  140.4419  155.4739 C.3     1  UNL1        0.1618
     19 C         144.8774  140.7802  156.5462 C.3     1  UNL1        0.1038
     20 C         143.5966  140.0070  156.6533 C.3     1  UNL1        0.0241
     21 C         143.3050  139.6421  164.8923 C.ar    1  UNL1        0.0516
     22 C         142.0100  139.7990  164.1516 C.ar    1  UNL1        0.0148
     23 C         141.9787  140.5307  162.8425 C.ar    1  UNL1        0.0043
     24 C         143.2423  141.1053  162.2740 C.ar    1  UNL1        0.0359
     25 C         144.5372  140.9484  163.0147 C.ar    1  UNL1        0.0043
     26 C         144.5686  140.2168  164.3237 C.ar    1  UNL1        0.0148
     27 N         142.9126  138.8653  168.7643 N.am    1  UNL1       -0.2887
     28 C         142.8813  139.5968  167.4551 C.2     1  UNL1        0.3045
     29 O         142.3948  141.0147  167.3997 O.2     1  UNL1       -0.2525
     30 N         143.3363  138.9105  166.2014 N.am    1  UNL1       -0.2683
     31 H         143.2319  137.9347  168.8006 H       1  UNL1        0.1510
     32 H         143.6556  137.9800  166.2377 H       1  UNL1        0.1564
     33 C         140.9923  139.7210  170.2906 C.3     1  UNL1        0.0230
     34 C         142.4575  139.5515  170.0180 C.3     1  UNL1        0.0910
@<TRIPOS>BOND
     1    33    34    1
     2    34    27    1
     3    27    28   am
     4    28    29    2
     5    28    30   am
     6    30    21    1
     7    21    22   ar
     8    22    23   ar
     9    23    24   ar
    10    24     1    1
    11     1     2   ar
    12     2     3   ar
    13     3    14    1
    14    14    15    1
    15    15    16    1
    16    16    17    1
    17    17    18    1
    18    18    19    1
    19    19    20    1
    20     3     4   ar
    21     4     5   ar
    22     5     6   ar
    23     5     7    1
    24     7     8    1
    25     7     9    1
    26     7    10    1
    27    10    11    2
    28    10    12    2
    29    10    13    1
    30    24    25   ar
    31    25    26   ar
    32    26    21   ar
    33     6     1   ar
    34    19    14    1
    35    13     4    1
    36    27    31    1
    37    30    32    1
@<TRIPOS>MOLECULE
*****
 34 37 0 0 0
SMALL
GASTEIGER

@<TRIPOS>ATOM
      1 C         140.9903  139.4424  161.3634 C.ar    1  UNL1        0.1633
      2 N         141.7118  140.7029  161.7384 N.ar    1  UNL1       -0.2122
      3 C         141.5728  141.2630  163.1229 C.ar    1  UNL1        0.1322
      4 C         140.7123  140.5627  164.1324 C.ar    1  UNL1        0.0482
      5 C         139.9907  139.3023  163.7574 C.ar    1  UNL1        0.0807
      6 N         140.1298  138.7421  162.3729 N.ar    1  UNL1       -0.2294
      7 C         139.2189  138.8359  164.9560 C.3     1  UNL1        0.1457
      8 C         138.7945  137.7173  164.0512 C.3     1  UNL1        0.0297
      9 C         138.3584  138.1356  165.9655 C.3     1  UNL1        0.0297
     10 S         139.4635  139.8080  166.0719 S.O2    1  UNL1       -0.0039
     11 O         138.5518  138.9045  166.8480 O.2     1  UNL1       -0.1724
     12 O         139.5174  140.5912  167.3499 O.2     1  UNL1       -0.1724
     13 C         140.3864  140.8753  165.5629 C.3     1  UNL1        0.1814
     14 N         142.2944  142.5235  163.4980 N.pl3   1  UNL1       -0.2900
     15 C         141.6497  143.8564  163.2581 C.3     1  UNL1        0.1242
     16 C         142.3712  145.1169  163.6331 C.3     1  UNL1        0.1636
     17 O         143.7374  145.0444  164.2482 O.3     1  UNL1       -0.3502
     18 C         144.3821  143.7114  164.4881 C.3     1  UNL1        0.1618
     19 C         143.6606  142.4509  164.1130 C.3     1  UNL1        0.1038
     20 C         144.3053  141.1180  164.3529 C.3     1  UNL1        0.0241
     21 C         141.4073  137.7619  157.2098 C.ar    1  UNL1        0.0516
     22 C         140.0460  138.0566  157.7664 C.ar    1  UNL1        0.0148
     23 C         139.9070  138.6168  159.1510 C.ar    1  UNL1        0.0043
     24 C         141.1293  138.8822  159.9788 C.ar    1  UNL1        0.0359
     25 C         142.4907  138.5876  159.4222 C.ar    1  UNL1        0.0043
     26 C         142.6297  138.0274  158.0377 C.ar    1  UNL1        0.0148
     27 N         142.1610  135.2323  154.2462 N.am    1  UNL1       -0.2887
     28 C         142.0219  135.7925  155.6307 C.2     1  UNL1        0.3045
     29 O         142.3584  134.9434  156.8206 O.2     1  UNL1       -0.2525
     30 N         141.5464  137.2017  155.8253 N.am    1  UNL1       -0.2683
     31 H         141.9401  135.7895  153.4652 H       1  UNL1        0.1510
     32 H         141.3256  137.7590  155.0443 H       1  UNL1        0.1564
     33 C         141.6605  132.6861  154.1199 C.3     1  UNL1        0.0230
     34 C         142.6365  133.8230  154.0516 C.3     1  UNL1        0.0910
@<TRIPOS>BOND
     1    33    34    1
     2    34    27    1
     3    27    28   am
     4    28    29    2
     5    28    30   am
     6    30    21    1
     7    21    22   ar
     8    22    23   ar
     9    23    24   ar
    10    24     1    1
    11     1     2   ar
    12     2     3   ar
    13     3    14    1
    14    14    15    1
    15    15    16    1
    16    16    17    1
    17    17    18    1
    18    18    19    1
    19    19    20    1
    20     3     4   ar
    21     4     5   ar
    22     5     6   ar
    23     5     7    1
    24     7     8    1
    25     7     9    1
    26     7    10    1
    27    10    11    2
    28    10    12    2
    29    10    13    1
    30    24    25   ar
    31    25    26   ar
    32    26    21   ar
    33     6     1   ar
    34    19    14    1
    35    13     4    1
    36    27    31    1
    37    30    32    1
@<TRIPOS>MOLECULE
*****
 34 37 0 0 0
SMALL
GASTEIGER

@<TRIPOS>ATOM
      1 C         139.4229  145.8517  156.1936 C.ar    1  UNL1        0.1633
      2 N         140.4591  145.5052  157.2213 N.ar    1  UNL1       -0.2122
      3 C         140.4061  144.1805  157.9228 C.ar    1  UNL1        0.1322
      4 C         139.3167  143.2022  157.5967 C.ar    1  UNL1        0.0482
      5 C         138.2805  143.5487  156.5690 C.ar    1  UNL1        0.0807
      6 N         138.3335  144.8734  155.8675 N.ar    1  UNL1       -0.2294
      7 C         137.3330  142.3912  156.4577 C.3     1  UNL1        0.1457
      8 C         136.6545  143.2486  155.4307 C.3     1  UNL1        0.0297
      9 C         136.2436  141.4129  156.1316 C.3     1  UNL1        0.0297
     10 S         137.7837  141.3293  157.4164 S.O2    1  UNL1       -0.0039
     11 O         136.6001  140.5730  156.8899 O.2     1  UNL1       -0.1724
     12 O         137.9869  140.1093  158.2651 O.2     1  UNL1       -0.1724
     13 C         139.0097  141.8305  158.1204 C.3     1  UNL1        0.1814
     14 N         141.4424  143.8339  158.9504 N.pl3   1  UNL1       -0.2900
     15 C         142.5902  142.9395  158.5861 C.3     1  UNL1        0.1242
     16 C         143.6264  142.5930  159.6137 C.3     1  UNL1        0.1636
     17 O         143.5150  143.1408  161.0057 O.3     1  UNL1       -0.3502
     18 C         142.3672  144.0351  161.3700 C.3     1  UNL1        0.1618
     19 C         141.3309  144.3817  160.3423 C.3     1  UNL1        0.1038
     20 C         140.1831  145.2761  160.7067 C.3     1  UNL1        0.0241
     21 C         139.5820  149.8261  154.0889 C.ar    1  UNL1        0.0516
     22 C         138.8102  149.6848  155.3674 C.ar    1  UNL1        0.0148
     23 C         138.7572  148.3600  156.0690 C.ar    1  UNL1        0.0043
     24 C         139.4759  147.1765  155.4921 C.ar    1  UNL1        0.0359
     25 C         140.2476  147.3178  154.2136 C.ar    1  UNL1        0.0043
     26 C         140.3007  148.6425  153.5121 C.ar    1  UNL1        0.0148
     27 N         140.7467  153.4744  153.0485 N.am    1  UNL1       -0.2887
     28 C         140.6936  152.1496  153.7500 C.2     1  UNL1        0.3045
     29 O         141.6992  151.8237  154.8143 O.2     1  UNL1       -0.2525
     30 N         139.6350  151.1508  153.3874 N.am    1  UNL1       -0.2683
     31 H         140.0867  153.6883  152.3500 H       1  UNL1        0.1510
     32 H         138.9750  151.3647  152.6889 H       1  UNL1        0.1564
     33 C         143.2011  154.3107  152.8864 C.3     1  UNL1        0.0230
     34 C         141.8054  154.4733  153.4111 C.3     1  UNL1        0.0910
@<TRIPOS>BOND
     1    33    34    1
     2    34    27    1
     3    27    28   am
     4    28    29    2
     5    28    30   am
     6    30    21    1
     7    21    22   ar
     8    22    23   ar
     9    23    24   ar
    10    24     1    1
    11     1     2   ar
    12     2     3   ar
    13     3    14    1
    14    14    15    1
    15    15    16    1
    16    16    17    1
    17    17    18    1
    18    18    19    1
    19    19    20    1
    20     3     4   ar
    21     4     5   ar
    22     5     6   ar
    23     5     7    1
    24     7     8    1
    25     7     9    1
    26     7    10    1
    27    10    11    2
    28    10    12    2
    29    10    13    1
    30    24    25   ar
    31    25    26   ar
    32    26    21   ar
    33     6     1   ar
    34    19    14    1
    35    13     4    1
    36    27    31    1
    37    30    32    1
@<TRIPOS>MOLECULE
*****
 34 37 0 0 0
SMALL
GASTEIGER

@<TRIPOS>ATOM
      1 C         138.4698  141.6423  160.0054 C.ar    1  UNL1        0.1633
      2 N         137.8156  140.8839  158.8888 N.ar    1  UNL1       -0.2122
      3 C         137.8885  141.4056  157.4843 C.ar    1  UNL1        0.1322
      4 C         138.6156  142.6856  157.1964 C.ar    1  UNL1        0.0482
      5 C         139.2698  143.4440  158.3130 C.ar    1  UNL1        0.0807
      6 N         139.1969  142.9224  159.7175 N.ar    1  UNL1       -0.2294
      7 C         139.9112  144.6676  157.7288 C.3     1  UNL1        0.1457
      8 C         140.3210  144.9373  159.1463 C.3     1  UNL1        0.0297
      9 C         140.6383  145.9476  157.4409 C.3     1  UNL1        0.0297
     10 S         139.6534  144.6654  156.2511 S.O2    1  UNL1       -0.0039
     11 O         140.4344  145.9459  156.2722 O.2     1  UNL1       -0.1724
     12 O         139.5589  144.9310  154.7779 O.2     1  UNL1       -0.1724
     13 C         138.8527  143.4405  155.9220 C.3     1  UNL1        0.1814
     14 N         137.2342  140.6472  156.3676 N.pl3   1  UNL1       -0.2900
     15 C         135.7630  140.8001  156.1183 C.3     1  UNL1        0.1242
     16 C         135.1088  140.0418  155.0017 C.3     1  UNL1        0.1636
     17 O         135.9257  139.1305  154.1344 O.3     1  UNL1       -0.3502
     18 C         137.3969  138.9775  154.3837 C.3     1  UNL1        0.1618
     19 C         138.0512  139.7359  155.5004 C.3     1  UNL1        0.1038
     20 C         139.5224  139.5830  155.7498 C.3     1  UNL1        0.0241
     21 C         138.2512  140.0775  164.2189 C.ar    1  UNL1        0.0516
     22 C         137.7405  141.4517  163.9018 C.ar    1  UNL1        0.0148
     23 C         137.8133  141.9733  162.4973 C.ar    1  UNL1        0.0043
     24 C         138.3969  141.1207  161.4099 C.ar    1  UNL1        0.0359
     25 C         138.9077  139.7465  161.7270 C.ar    1  UNL1        0.0043
     26 C         138.8349  139.2248  163.1315 C.ar    1  UNL1        0.0148
     27 N         139.0450  139.5594  168.0727 N.am    1  UNL1       -0.2887
     28 C         139.1178  140.0810  166.6681 C.2     1  UNL1        0.3045
     29 O         140.1301  141.1279  166.3084 O.2     1  UNL1       -0.2525
     30 N         138.1784  139.5558  165.6234 N.am    1  UNL1       -0.2683
     31 H         138.3806  138.8723  168.3088 H       1  UNL1        0.1510
     32 H         137.5140  138.8688  165.8595 H       1  UNL1        0.1564
     33 C         139.5972  141.2748  169.9441 C.3     1  UNL1        0.0230
     34 C         139.9845  140.0846  169.1174 C.3     1  UNL1        0.0910
@<TRIPOS>BOND
     1    33    34    1
     2    34    27    1
     3    27    28   am
     4    28    29    2
     5    28    30   am
     6    30    21    1
     7    21    22   ar
     8    22    23   ar
     9    23    24   ar
    10    24     1    1
    11     1     2   ar
    12     2     3   ar
    13     3    14    1
    14    14    15    1
    15    15    16    1
    16    16    17    1
    17    17    18    1
    18    18    19    1
    19    19    20    1
    20     3     4   ar
    21     4     5   ar
    22     5     6   ar
    23     5     7    1
    24     7     8    1
    25     7     9    1
    26     7    10    1
    27    10    11    2
    28    10    12    2
    29    10    13    1
    30    24    25   ar
    31    25    26   ar
    32    26    21   ar
    33     6     1   ar
    34    19    14    1
    35    13     4    1
    36    27    31    1
    37    30    32    1
@<TRIPOS>MOLECULE
*****
 34 37 0 0 0
SMALL
GASTEIGER

@<TRIPOS>ATOM
      1 C         142.3999  141.8893  159.4552 C.ar    1  UNL1        0.1633
      2 N         141.7435  140.7111  160.1116 N.ar    1  UNL1       -0.2122
      3 C         140.6120  140.9225  161.0734 C.ar    1  UNL1        0.1322
      4 C         140.1369  142.3121  161.3787 C.ar    1  UNL1        0.0482
      5 C         140.7933  143.4903  160.7223 C.ar    1  UNL1        0.0807
      6 N         141.9248  143.2789  159.7605 N.ar    1  UNL1       -0.2294
      7 C         140.1139  144.7335  161.2152 C.3     1  UNL1        0.1457
      8 C         141.0908  145.4339  160.3179 C.3     1  UNL1        0.0297
      9 C         139.6388  146.1231  161.5205 C.3     1  UNL1        0.0297
     10 S         139.0376  144.3236  162.1763 S.O2    1  UNL1       -0.0039
     11 O         138.7875  145.7989  162.2806 O.2     1  UNL1       -0.1724
     12 O         137.9092  144.2222  163.1591 O.2     1  UNL1       -0.1724
     13 C         139.0518  142.8271  162.2774 C.3     1  UNL1        0.1814
     14 N         139.9556  139.7443  161.7299 N.pl3   1  UNL1       -0.2900
     15 C         138.6559  139.2171  161.1979 C.3     1  UNL1        0.1242
     16 C         137.9995  138.0389  161.8543 C.3     1  UNL1        0.1636
     17 O         138.6427  137.3878  163.0428 O.3     1  UNL1       -0.3502
     18 C         139.9424  137.9150  163.5748 C.3     1  UNL1        0.1618
     19 C         140.5988  139.0932  162.9183 C.3     1  UNL1        0.1038
     20 C         141.8985  139.6204  163.4503 C.3     1  UNL1        0.0241
     21 C         145.7945  141.2552  156.5699 C.ar    1  UNL1        0.0516
     22 C         144.5779  140.3806  156.5004 C.ar    1  UNL1        0.0148
     23 C         143.4463  140.5920  157.4622 C.ar    1  UNL1        0.0043
     24 C         143.5314  141.6779  158.4934 C.ar    1  UNL1        0.0359
     25 C         144.7480  142.5526  158.5629 C.ar    1  UNL1        0.0043
     26 C         145.8796  142.3413  157.6011 C.ar    1  UNL1        0.0148
     27 N         148.4408  141.9213  153.6883 N.am    1  UNL1       -0.2887
     28 C         147.3092  142.1326  154.6501 C.2     1  UNL1        0.3045
     29 O         146.5609  143.4326  154.6539 O.2     1  UNL1       -0.2525
     30 N         146.9260  141.0439  155.6082 N.am    1  UNL1       -0.2683
     31 H         148.9319  141.0681  153.6859 H       1  UNL1        0.1510
     32 H         147.4171  140.1907  155.6057 H       1  UNL1        0.1564
     33 C         150.2318  143.5273  152.7071 C.3     1  UNL1        0.0230
     34 C         148.8240  143.0100  152.7303 C.3     1  UNL1        0.0910
@<TRIPOS>BOND
     1    33    34    1
     2    34    27    1
     3    27    28   am
     4    28    29    2
     5    28    30   am
     6    30    21    1
     7    21    22   ar
     8    22    23   ar
     9    23    24   ar
    10    24     1    1
    11     1     2   ar
    12     2     3   ar
    13     3    14    1
    14    14    15    1
    15    15    16    1
    16    16    17    1
    17    17    18    1
    18    18    19    1
    19    19    20    1
    20     3     4   ar
    21     4     5   ar
    22     5     6   ar
    23     5     7    1
    24     7     8    1
    25     7     9    1
    26     7    10    1
    27    10    11    2
    28    10    12    2
    29    10    13    1
    30    24    25   ar
    31    25    26   ar
    32    26    21   ar
    33     6     1   ar
    34    19    14    1
    35    13     4    1
    36    27    31    1
    37    30    32    1
@<TRIPOS>MOLECULE
*****
 34 37 0 0 0
SMALL
GASTEIGER

@<TRIPOS>ATOM
      1 C         141.7367  139.3536  160.6251 C.ar    1  UNL1        0.1633
      2 N         141.4432  138.2883  159.6108 N.ar    1  UNL1       -0.2122
      3 C         142.1111  138.3267  158.2682 C.ar    1  UNL1        0.1322
      4 C         143.0723  139.4304  157.9400 C.ar    1  UNL1        0.0482
      5 C         143.3658  140.4957  158.9543 C.ar    1  UNL1        0.0807
      6 N         142.6980  140.4573  160.2969 N.ar    1  UNL1       -0.2294
      7 C         144.3510  141.4520  158.3504 C.3     1  UNL1        0.1457
      8 C         144.2365  142.1571  159.6694 C.3     1  UNL1        0.0297
      9 C         145.3123  142.5558  158.0221 C.3     1  UNL1        0.0297
     10 S         144.6665  140.9778  156.9627 S.O2    1  UNL1       -0.0039
     11 O         145.5618  142.1806  156.9246 O.2     1  UNL1       -0.1724
     12 O         145.1690  140.7550  155.5672 O.2     1  UNL1       -0.1724
     13 C         143.8762  139.7283  156.7090 C.3     1  UNL1        0.1814
     14 N         141.8176  137.2613  157.2538 N.pl3   1  UNL1       -0.2900
     15 C         142.7431  136.0900  157.1072 C.3     1  UNL1        0.1242
     16 C         142.4497  135.0247  156.0929 C.3     1  UNL1        0.1636
     17 O         141.2308  135.1307  155.2250 O.3     1  UNL1       -0.3502
     18 C         140.3053  136.3020  155.3715 C.3     1  UNL1        0.1618
     19 C         140.5988  137.3674  156.3860 C.3     1  UNL1        0.1038
     20 C         139.6733  138.5387  156.5325 C.3     1  UNL1        0.0241
     21 C         139.7332  139.2384  164.6529 C.ar    1  UNL1        0.0516
     22 C         139.7047  140.4966  163.8368 C.ar    1  UNL1        0.0148
     23 C         140.3725  140.5350  162.4941 C.ar    1  UNL1        0.0043
     24 C         141.0689  139.3152  161.9677 C.ar    1  UNL1        0.0359
     25 C         141.0974  138.0570  162.7839 C.ar    1  UNL1        0.0043
     26 C         140.4297  138.0186  164.1265 C.ar    1  UNL1        0.0148
     27 N         139.0967  139.7249  168.5398 N.am    1  UNL1       -0.2887
     28 C         139.7644  139.7633  167.1972 C.2     1  UNL1        0.3045
     29 O         141.1312  140.3650  167.0563 O.2     1  UNL1       -0.2525
     30 N         139.0655  139.2000  165.9955 N.am    1  UNL1       -0.2683
     31 H         138.1996  139.3300  168.6323 H       1  UNL1        0.1510
     32 H         138.1684  138.8051  166.0880 H       1  UNL1        0.1564
     33 C         139.6483  141.7416  170.0820 C.3     1  UNL1        0.0230
     34 C         139.7956  140.2882  169.7415 C.3     1  UNL1        0.0910
@<TRIPOS>BOND
     1    33    34    1
     2    34    27    1
     3    27    28   am
     4    28    29    2
     5    28    30   am
     6    30    21    1
     7    21    22   ar
     8    22    23   ar
     9    23    24   ar
    10    24     1    1
    11     1     2   ar
    12     2     3   ar
    13     3    14    1
    14    14    15    1
    15    15    16    1
    16    16    17    1
    17    17    18    1
    18    18    19    1
    19    19    20    1
    20     3     4   ar
    21     4     5   ar
    22     5     6   ar
    23     5     7    1
    24     7     8    1
    25     7     9    1
    26     7    10    1
    27    10    11    2
    28    10    12    2
    29    10    13    1
    30    24    25   ar
    31    25    26   ar
    32    26    21   ar
    33     6     1   ar
    34    19    14    1
    35    13     4    1
    36    27    31    1
    37    30    32    1
@<TRIPOS>MOLECULE
*****
 34 37 0 0 0
SMALL
GASTEIGER

@<TRIPOS>ATOM
      1 C         140.1505  138.5770  157.6729 C.ar    1  UNL1        0.1633
      2 N         139.7848  139.8551  156.9783 N.ar    1  UNL1       -0.2122
      3 C         139.1039  140.9539  157.7392 C.ar    1  UNL1        0.1322
      4 C         138.7887  140.7745  159.1947 C.ar    1  UNL1        0.0482
      5 C         139.1545  139.4964  159.8893 C.ar    1  UNL1        0.0807
      6 N         139.8354  138.3976  159.1284 N.ar    1  UNL1       -0.2294
      7 C         138.7206  139.6063  161.3210 C.3     1  UNL1        0.1457
      8 C         139.2886  138.2227  161.4350 C.3     1  UNL1        0.0297
      9 C         138.4054  139.4269  162.7765 C.3     1  UNL1        0.0297
     10 S         138.0866  140.9524  161.5112 S.O2    1  UNL1       -0.0039
     11 O         137.9040  140.4916  162.9269 O.2     1  UNL1       -0.1724
     12 O         137.4145  142.2021  161.9973 O.2     1  UNL1       -0.1724
     13 C         138.1287  141.6744  160.1971 C.3     1  UNL1        0.1814
     14 N         138.7381  142.2321  157.0446 N.pl3   1  UNL1       -0.2900
     15 C         139.7232  143.3616  156.9848 C.3     1  UNL1        0.1242
     16 C         139.3575  144.6398  156.2902 C.3     1  UNL1        0.1636
     17 O         138.0065  144.7885  155.6554 O.3     1  UNL1       -0.3502
     18 C         137.0214  143.6589  155.7152 C.3     1  UNL1        0.1618
     19 C         137.3872  142.3807  156.4098 C.3     1  UNL1        0.1038
     20 C         136.4020  141.2512  156.4696 C.3     1  UNL1        0.0241
     21 C         142.1934  135.2804  155.3903 C.ar    1  UNL1        0.0516
     22 C         140.7864  135.6704  155.0464 C.ar    1  UNL1        0.0148
     23 C         140.1054  136.7693  155.8073 C.ar    1  UNL1        0.0043
     24 C         140.8315  137.4781  156.9120 C.ar    1  UNL1        0.0359
     25 C         142.2385  137.0881  157.2559 C.ar    1  UNL1        0.0043
     26 C         142.9194  135.9893  156.4950 C.ar    1  UNL1        0.0148
     27 N         143.5952  131.6933  154.4324 N.am    1  UNL1       -0.2887
     28 C         142.9142  132.7922  155.1932 C.2     1  UNL1        0.3045
     29 O         142.2732  132.5016  156.5179 O.2     1  UNL1       -0.2525
     30 N         142.8743  134.1816  154.6294 N.am    1  UNL1       -0.2683
     31 H         144.0159  131.8841  153.5630 H       1  UNL1        0.1510
     32 H         143.2950  134.3724  153.7600 H       1  UNL1        0.1564
     33 C         144.7707  129.8868  155.8831 C.3     1  UNL1        0.0230
     34 C         143.6352  130.3039  154.9962 C.3     1  UNL1        0.0910
@<TRIPOS>BOND
     1    33    34    1
     2    34    27    1
     3    27    28   am
     4    28    29    2
     5    28    30   am
     6    30    21    1
     7    21    22   ar
     8    22    23   ar
     9    23    24   ar
    10    24     1    1
    11     1     2   ar
    12     2     3   ar
    13     3    14    1
    14    14    15    1
    15    15    16    1
    16    16    17    1
    17    17    18    1
    18    18    19    1
    19    19    20    1
    20     3     4   ar
    21     4     5   ar
    22     5     6   ar
    23     5     7    1
    24     7     8    1
    25     7     9    1
    26     7    10    1
    27    10    11    2
    28    10    12    2
    29    10    13    1
    30    24    25   ar
    31    25    26   ar
    32    26    21   ar
    33     6     1   ar
    34    19    14    1
    35    13     4    1
    36    27    31    1
    37    30    32    1
@<TRIPOS>MOLECULE
*****
 34 37 0 0 0
SMALL
GASTEIGER

@<TRIPOS>ATOM
      1 C         140.4897  140.2371  165.3300 C.ar    1  UNL1        0.1633
      2 N         140.6034  141.6225  164.7665 N.ar    1  UNL1       -0.2122
      3 C         139.9462  141.9571  163.4604 C.ar    1  UNL1        0.1322
      4 C         139.1753  140.9063  162.7178 C.ar    1  UNL1        0.0482
      5 C         139.0615  139.5209  163.2813 C.ar    1  UNL1        0.0807
      6 N         139.7187  139.1863  164.5874 N.ar    1  UNL1       -0.2294
      7 C         138.2422  138.6996  162.3304 C.3     1  UNL1        0.1457
      8 C         138.4737  137.6021  163.3264 C.3     1  UNL1        0.0297
      9 C         137.4713  137.6488  161.5878 C.3     1  UNL1        0.0297
     10 S         137.8495  139.5774  161.1792 S.O2    1  UNL1       -0.0039
     11 O         137.1607  138.3431  160.6773 O.2     1  UNL1       -0.1724
     12 O         137.3129  140.1972  159.9232 O.2     1  UNL1       -0.1724
     13 C         138.4262  140.9413  161.4186 C.3     1  UNL1        0.1814
     14 N         140.0599  143.3426  162.8968 N.pl3   1  UNL1       -0.2900
     15 C         141.2073  143.6944  161.9969 C.3     1  UNL1        0.1242
     16 C         141.3210  145.0798  161.4333 C.3     1  UNL1        0.1636
     17 O         140.2874  146.1135  161.7696 O.3     1  UNL1       -0.3502
     18 C         139.1400  145.7618  162.6695 C.3     1  UNL1        0.1618
     19 C         139.0263  144.3763  163.2331 C.3     1  UNL1        0.1038
     20 C         137.8789  144.0245  164.1330 C.3     1  UNL1        0.0241
     21 C         142.4614  139.2329  169.2486 C.ar    1  UNL1        0.0516
     22 C         141.0717  139.7972  169.2311 C.ar    1  UNL1        0.0148
     23 C         140.4144  140.1319  167.9249 C.ar    1  UNL1        0.0043
     24 C         141.1469  139.9023  166.6363 C.ar    1  UNL1        0.0359
     25 C         142.5366  139.3381  166.6537 C.ar    1  UNL1        0.0043
     26 C         143.1939  139.0034  167.9598 C.ar    1  UNL1        0.0148
     27 N         144.5923  137.3119  171.9906 N.am    1  UNL1       -0.2887
     28 C         143.9350  137.6466  170.6844 C.2     1  UNL1        0.3045
     29 O         144.0942  136.7297  169.5080 O.2     1  UNL1       -0.2525
     30 N         143.1186  138.8982  170.5547 N.am    1  UNL1       -0.2683
     31 H         144.4878  137.9137  172.7627 H       1  UNL1        0.1510
     32 H         143.0141  139.5001  171.3268 H       1  UNL1        0.1564
     33 C         146.6693  136.0680  172.9332 C.3     1  UNL1        0.0230
     34 C         145.4087  136.0602  172.1203 C.3     1  UNL1        0.0910
@<TRIPOS>BOND
     1    33    34    1
     2    34    27    1
     3    27    28   am
     4    28    29    2
     5    28    30   am
     6    30    21    1
     7    21    22   ar
     8    22    23   ar
     9    23    24   ar
    10    24     1    1
    11     1     2   ar
    12     2     3   ar
    13     3    14    1
    14    14    15    1
    15    15    16    1
    16    16    17    1
    17    17    18    1
    18    18    19    1
    19    19    20    1
    20     3     4   ar
    21     4     5   ar
    22     5     6   ar
    23     5     7    1
    24     7     8    1
    25     7     9    1
    26     7    10    1
    27    10    11    2
    28    10    12    2
    29    10    13    1
    30    24    25   ar
    31    25    26   ar
    32    26    21   ar
    33     6     1   ar
    34    19    14    1
    35    13     4    1
    36    27    31    1
    37    30    32    1
