@<TRIPOS>MOLECULE
*****
 35 39 0 0 0
SMALL
GASTEIGER

@<TRIPOS>ATOM
      1 N         139.3806  139.4193  161.5115 N.3     1  UNL1       -0.2712
      2 C         138.6314  140.0334  160.3662 C.3     1  UNL1        0.0738
      3 C         139.0855  141.4560  160.2249 C.3     1  UNL1        0.0372
      4 C         138.9032  142.7147  159.4298 C.3     1  UNL1        0.0245
      5 C         139.8203  143.7579  159.9962 C.3     1  UNL1        0.0910
      6 N         140.5694  143.1438  161.1416 N.pl3   1  UNL1       -0.3054
      7 C         140.1153  141.7211  161.2829 C.3     1  UNL1        0.0901
      8 C         140.2977  140.4624  162.0780 C.3     1  UNL1        0.0921
      9 C         141.5930  143.8315  161.9956 C.ar    1  UNL1        0.0826
     10 C         143.0460  143.4909  161.8457 C.ar    1  UNL1        0.0176
     11 C         144.0696  144.1786  162.6998 C.ar    1  UNL1        0.0015
     12 C         143.6400  145.2071  163.7036 C.ar    1  UNL1        0.0032
     13 C         142.1869  145.5478  163.8535 C.ar    1  UNL1        0.0385
     14 C         141.1634  144.8600  162.9995 C.ar    1  UNL1        0.1600
     15 O         139.7103  145.2007  163.1493 O.3     1  UNL1       -0.4032
     16 C         138.8004  144.2856  163.9139 C.3     1  UNL1        0.5753
     17 F         137.8905  143.3705  164.6786 F       1  UNL1       -0.1328
     18 F         137.9169  144.1569  162.7085 F       1  UNL1       -0.1328
     19 F         139.6839  144.4143  165.1192 F       1  UNL1       -0.1328
     20 C         139.2378  138.0096  162.0039 C.3     1  UNL1        0.0731
     21 C         138.5604  137.7379  163.3143 C.3     1  UNL1        0.0294
     22 C         139.1901  138.2013  164.5945 C.3     1  UNL1        0.0666
     23 S         138.5263  139.2683  165.4136 S.3     1  UNL1       -0.0756
     24 C         140.5584  140.7039  168.3928 C.ar    1  UNL1        0.2029
     25 N         139.4970  139.9267  169.1135 N.ar    1  UNL1       -0.1250
     26 N         138.6066  139.2943  168.0852 N.ar    1  UNL1       -0.1220
     27 C         139.1177  139.6807  166.7289 C.ar    1  UNL1        0.1933
     28 N         140.3239  140.5518  166.9189 N.ar    1  UNL1       -0.2860
     29 C         141.1506  141.1635  165.8269 C.3     1  UNL1        0.1341
     30 C         140.2928  143.7122  169.6295 C.3     1  UNL1        0.0556
     31 C         141.5386  142.8771  169.6017 C.ar    1  UNL1        0.1001
     32 N         142.8810  143.2781  170.1375 N.ar    1  UNL1       -0.2085
     33 C         143.8327  142.1432  169.9003 C.ar    1  UNL1        0.2849
     34 O         143.0785  141.0408  169.2178 O.2     1  UNL1       -0.4283
     35 C         141.6606  141.4944  169.0333 C.ar    1  UNL1        0.1964
@<TRIPOS>BOND
     1    30    31    1
     2    31    32   ar
     3    32    33   ar
     4    33    34   ar
     5    34    35   ar
     6    35    24    1
     7    24    25   ar
     8    25    26   ar
     9    26    27   ar
    10    27    23    1
    11    23    22    1
    12    22    21    1
    13    21    20    1
    14    20     1    1
    15     1     2    1
    16     2     3    1
    17     3     4    1
    18     4     5    1
    19     5     6    1
    20     6     9    1
    21     9    10   ar
    22    10    11   ar
    23    11    12   ar
    24    12    13   ar
    25    13    14   ar
    26    14    15    1
    27    15    16    1
    28    16    17    1
    29    16    18    1
    30    16    19    1
    31     6     7    1
    32     7     8    1
    33    27    28   ar
    34    28    29    1
    35    35    31   ar
    36    28    24   ar
    37     8     1    1
    38     7     3    1
    39    14     9   ar
@<TRIPOS>MOLECULE
*****
 35 39 0 0 0
SMALL
GASTEIGER

@<TRIPOS>ATOM
      1 N         141.9585  138.3859  163.3068 N.3     1  UNL1       -0.2712
      2 C         141.0846  137.3755  163.9890 C.3     1  UNL1        0.0738
      3 C         139.9542  138.1095  164.6473 C.3     1  UNL1        0.0372
      4 C         138.7155  137.9387  165.4758 C.3     1  UNL1        0.0245
      5 C         138.1252  139.2972  165.7126 C.3     1  UNL1        0.0910
      6 N         138.9992  140.3077  165.0304 N.pl3   1  UNL1       -0.3054
      7 C         140.1295  139.5736  164.3721 C.3     1  UNL1        0.0901
      8 C         141.3682  139.7444  163.5436 C.3     1  UNL1        0.0921
      9 C         138.7810  141.7916  165.0102 C.ar    1  UNL1        0.0826
     10 C         139.5355  142.6736  165.9603 C.ar    1  UNL1        0.0176
     11 C         139.3173  144.1575  165.9400 C.ar    1  UNL1        0.0015
     12 C         138.3446  144.7594  164.9697 C.ar    1  UNL1        0.0032
     13 C         137.5901  143.8774  164.0195 C.ar    1  UNL1        0.0385
     14 C         137.8083  142.3935  164.0397 C.ar    1  UNL1        0.1600
     15 O         137.0538  141.5114  163.0896 O.3     1  UNL1       -0.4032
     16 C         137.7135  141.0248  161.8335 C.3     1  UNL1        0.5753
     17 F         138.3733  140.5381  160.5773 F       1  UNL1       -0.1328
     18 F         137.5344  139.6068  162.2888 F       1  UNL1       -0.1328
     19 F         137.8926  142.4428  161.3782 F       1  UNL1       -0.1328
     20 C         143.2040  138.0898  162.5251 C.3     1  UNL1        0.0731
     21 C         144.1824  139.1876  162.2292 C.3     1  UNL1        0.0294
     22 C         144.9367  139.8421  163.3485 C.3     1  UNL1        0.0666
     23 S         145.1720  141.3233  163.3288 S.3     1  UNL1       -0.0756
     24 C         142.6864  143.7101  161.5426 C.ar    1  UNL1        0.2029
     25 N         143.6212  143.3716  160.4194 N.ar    1  UNL1       -0.1250
     26 N         144.6661  142.4363  160.9518 N.ar    1  UNL1       -0.1220
     27 C         144.3771  142.1968  162.4041 C.ar    1  UNL1        0.1933
     28 N         143.1536  142.9840  162.7692 N.ar    1  UNL1       -0.2860
     29 C         142.5102  143.0359  164.1232 C.3     1  UNL1        0.1341
     30 C         140.4953  143.7671  159.1248 C.3     1  UNL1        0.0556
     31 C         140.4867  144.6418  160.3433 C.ar    1  UNL1        0.1001
     32 N         139.4695  145.6964  160.6644 N.ar    1  UNL1       -0.2085
     33 C         139.8478  146.3219  161.9742 C.ar    1  UNL1        0.2849
     34 O         141.0990  145.6540  162.4625 O.2     1  UNL1       -0.4283
     35 C         141.4938  144.6157  161.4546 C.ar    1  UNL1        0.1964
@<TRIPOS>BOND
     1    30    31    1
     2    31    32   ar
     3    32    33   ar
     4    33    34   ar
     5    34    35   ar
     6    35    24    1
     7    24    25   ar
     8    25    26   ar
     9    26    27   ar
    10    27    23    1
    11    23    22    1
    12    22    21    1
    13    21    20    1
    14    20     1    1
    15     1     2    1
    16     2     3    1
    17     3     4    1
    18     4     5    1
    19     5     6    1
    20     6     9    1
    21     9    10   ar
    22    10    11   ar
    23    11    12   ar
    24    12    13   ar
    25    13    14   ar
    26    14    15    1
    27    15    16    1
    28    16    17    1
    29    16    18    1
    30    16    19    1
    31     6     7    1
    32     7     8    1
    33    27    28   ar
    34    28    29    1
    35    35    31   ar
    36    28    24   ar
    37     8     1    1
    38     7     3    1
    39    14     9   ar
@<TRIPOS>MOLECULE
*****
 35 39 0 0 0
SMALL
GASTEIGER

@<TRIPOS>ATOM
      1 N         143.9293  142.7630  164.0250 N.3     1  UNL1       -0.2712
      2 C         144.6599  141.5247  163.5976 C.3     1  UNL1        0.0738
      3 C         144.2628  140.4106  164.5202 C.3     1  UNL1        0.0372
      4 C         144.4690  138.9567  164.8263 C.3     1  UNL1        0.0245
      5 C         143.6204  138.6080  166.0131 C.3     1  UNL1        0.0910
      6 N         142.8898  139.8464  166.4405 N.pl3   1  UNL1       -0.3054
      7 C         143.2869  140.9605  165.5178 C.3     1  UNL1        0.0901
      8 C         143.0807  142.4144  165.2118 C.3     1  UNL1        0.0921
      9 C         141.9306  139.9522  167.5888 C.ar    1  UNL1        0.0826
     10 C         142.4496  140.0616  168.9919 C.ar    1  UNL1        0.0176
     11 C         141.4904  140.1673  170.1403 C.ar    1  UNL1        0.0015
     12 C         140.0122  140.1637  169.8856 C.ar    1  UNL1        0.0032
     13 C         139.4932  140.0543  168.4825 C.ar    1  UNL1        0.0385
     14 C         140.4524  139.9485  167.3341 C.ar    1  UNL1        0.1600
     15 O         139.9334  139.8391  165.9310 O.3     1  UNL1       -0.4032
     16 C         139.1958  138.6068  165.4982 C.3     1  UNL1        0.5753
     17 F         138.4583  137.3744  165.0653 F       1  UNL1       -0.1328
     18 F         140.5018  137.9018  165.2802 F       1  UNL1       -0.1328
     19 F         137.8900  139.3118  165.7161 F       1  UNL1       -0.1328
     20 C         144.0296  144.1131  163.3791 C.3     1  UNL1        0.0731
     21 C         143.2188  145.2593  163.9071 C.3     1  UNL1        0.0294
     22 C         141.7204  145.1918  163.8834 C.3     1  UNL1        0.0666
     23 S         140.9884  145.2341  162.5748 S.3     1  UNL1       -0.0756
     24 C         138.5934  142.2738  161.8221 C.ar    1  UNL1        0.2029
     25 N         137.6154  143.3911  162.0345 N.ar    1  UNL1       -0.1250
     26 N         138.3935  144.6360  162.3423 N.ar    1  UNL1       -0.1220
     27 C         139.8525  144.2881  162.3202 C.ar    1  UNL1        0.1933
     28 N         139.9761  142.8282  161.9987 N.ar    1  UNL1       -0.2860
     29 C         141.2572  142.0579  161.8754 C.3     1  UNL1        0.1341
     30 C         138.2862  141.0224  158.8239 C.3     1  UNL1        0.0556
     31 C         138.1080  140.2766  160.1131 C.ar    1  UNL1        0.1001
     32 N         137.7574  138.8246  160.2506 N.ar    1  UNL1       -0.2085
     33 C         137.6820  138.5025  161.7136 C.ar    1  UNL1        0.2849
     34 O         137.9860  139.7553  162.4804 O.2     1  UNL1       -0.4283
     35 C         138.2493  140.8518  161.4912 C.ar    1  UNL1        0.1964
@<TRIPOS>BOND
     1    30    31    1
     2    31    32   ar
     3    32    33   ar
     4    33    34   ar
     5    34    35   ar
     6    35    24    1
     7    24    25   ar
     8    25    26   ar
     9    26    27   ar
    10    27    23    1
    11    23    22    1
    12    22    21    1
    13    21    20    1
    14    20     1    1
    15     1     2    1
    16     2     3    1
    17     3     4    1
    18     4     5    1
    19     5     6    1
    20     6     9    1
    21     9    10   ar
    22    10    11   ar
    23    11    12   ar
    24    12    13   ar
    25    13    14   ar
    26    14    15    1
    27    15    16    1
    28    16    17    1
    29    16    18    1
    30    16    19    1
    31     6     7    1
    32     7     8    1
    33    27    28   ar
    34    28    29    1
    35    35    31   ar
    36    28    24   ar
    37     8     1    1
    38     7     3    1
    39    14     9   ar
@<TRIPOS>MOLECULE
*****
 35 39 0 0 0
SMALL
GASTEIGER

@<TRIPOS>ATOM
      1 N         138.0991  140.3929  162.9630 N.3     1  UNL1       -0.2712
      2 C         137.3872  141.6999  162.7759 C.3     1  UNL1        0.0738
      3 C         137.9841  142.6933  163.7282 C.3     1  UNL1        0.0372
      4 C         137.9130  144.1150  164.2012 C.3     1  UNL1        0.0245
      5 C         138.9498  144.3007  165.2692 C.3     1  UNL1        0.0910
      6 N         139.6617  142.9936  165.4562 N.pl3   1  UNL1       -0.3054
      7 C         139.0649  142.0003  164.5039 C.3     1  UNL1        0.0901
      8 C         139.1360  140.5786  164.0309 C.3     1  UNL1        0.0921
      9 C         140.7750  142.7269  166.4254 C.ar    1  UNL1        0.0826
     10 C         140.4819  142.6155  167.8923 C.ar    1  UNL1        0.0176
     11 C         141.5952  142.3488  168.8615 C.ar    1  UNL1        0.0015
     12 C         143.0016  142.1934  168.3639 C.ar    1  UNL1        0.0032
     13 C         143.2949  142.3047  166.8970 C.ar    1  UNL1        0.0385
     14 C         142.1816  142.5714  165.9278 C.ar    1  UNL1        0.1600
     15 O         142.4747  142.6827  164.4610 O.3     1  UNL1       -0.4032
     16 C         142.7547  144.0246  163.8518 C.3     1  UNL1        0.5753
     17 F         143.0345  145.3665  163.2427 F       1  UNL1       -0.1328
     18 F         141.4928  143.9224  163.0471 F       1  UNL1       -0.1328
     19 F         144.0164  144.1267  164.6565 F       1  UNL1       -0.1328
     20 C         137.8227  139.1232  162.2137 C.3     1  UNL1        0.0731
     21 C         138.8843  138.5205  161.3421 C.3     1  UNL1        0.0294
     22 C         139.0823  139.0250  159.9434 C.3     1  UNL1        0.0666
     23 S         140.3838  138.7859  159.2370 S.3     1  UNL1       -0.0756
     24 C         143.4952  139.4120  161.4715 C.ar    1  UNL1        0.2029
     25 N         143.7824  138.0336  160.9542 N.ar    1  UNL1       -0.1250
     26 N         142.6518  137.6313  160.0542 N.ar    1  UNL1       -0.1220
     27 C         141.6659  138.7611  160.0153 C.ar    1  UNL1        0.1933
     28 N         142.1870  139.8616  160.8912 N.ar    1  UNL1       -0.2860
     29 C         141.5177  141.1802  161.1427 C.3     1  UNL1        0.1341
     30 C         143.8112  138.9135  164.6811 C.3     1  UNL1        0.0556
     31 C         144.5089  139.9729  163.8805 C.ar    1  UNL1        0.1001
     32 N         145.4743  140.9891  164.4145 N.ar    1  UNL1       -0.2085
     33 C         145.9257  141.8463  163.2693 C.ar    1  UNL1        0.2849
     34 O         145.2393  141.3598  162.0275 O.2     1  UNL1       -0.4283
     35 C         144.3636  140.2020  162.4052 C.ar    1  UNL1        0.1964
@<TRIPOS>BOND
     1    30    31    1
     2    31    32   ar
     3    32    33   ar
     4    33    34   ar
     5    34    35   ar
     6    35    24    1
     7    24    25   ar
     8    25    26   ar
     9    26    27   ar
    10    27    23    1
    11    23    22    1
    12    22    21    1
    13    21    20    1
    14    20     1    1
    15     1     2    1
    16     2     3    1
    17     3     4    1
    18     4     5    1
    19     5     6    1
    20     6     9    1
    21     9    10   ar
    22    10    11   ar
    23    11    12   ar
    24    12    13   ar
    25    13    14   ar
    26    14    15    1
    27    15    16    1
    28    16    17    1
    29    16    18    1
    30    16    19    1
    31     6     7    1
    32     7     8    1
    33    27    28   ar
    34    28    29    1
    35    35    31   ar
    36    28    24   ar
    37     8     1    1
    38     7     3    1
    39    14     9   ar
@<TRIPOS>MOLECULE
*****
 35 39 0 0 0
SMALL
GASTEIGER

@<TRIPOS>ATOM
      1 N         140.0366  138.5299  164.0142 N.3     1  UNL1       -0.2712
      2 C         139.9695  138.2847  165.4925 C.3     1  UNL1        0.0738
      3 C         140.5626  139.4745  166.1871 C.3     1  UNL1        0.0372
      4 C         140.8877  140.0583  167.5301 C.3     1  UNL1        0.0245
      5 C         141.5222  141.3998  167.3111 C.3     1  UNL1        0.0910
      6 N         141.5893  141.6450  165.8328 N.pl3   1  UNL1       -0.3054
      7 C         140.9962  140.4552  165.1382 C.3     1  UNL1        0.0901
      8 C         140.6712  139.8714  163.7952 C.3     1  UNL1        0.0921
      9 C         142.1508  142.8658  165.1662 C.ar    1  UNL1        0.0826
     10 C         143.6324  143.0997  165.1549 C.ar    1  UNL1        0.0176
     11 C         144.1940  144.3205  164.4883 C.ar    1  UNL1        0.0015
     12 C         143.2740  145.3074  163.8330 C.ar    1  UNL1        0.0032
     13 C         141.7923  145.0735  163.8442 C.ar    1  UNL1        0.0385
     14 C         141.2307  143.8527  164.5108 C.ar    1  UNL1        0.1600
     15 O         139.7492  143.6188  164.5220 O.3     1  UNL1       -0.4032
     16 C         138.8500  144.5421  165.2894 C.3     1  UNL1        0.5753
     17 F         137.9507  145.4655  166.0569 F       1  UNL1       -0.1328
     18 F         139.5643  144.1828  166.5586 F       1  UNL1       -0.1328
     19 F         138.1357  144.9014  164.0203 F       1  UNL1       -0.1328
     20 C         139.5540  137.5975  162.9430 C.3     1  UNL1        0.0731
     21 C         138.3507  137.9565  162.1224 C.3     1  UNL1        0.0294
     22 C         138.5190  138.6944  160.8273 C.3     1  UNL1        0.0666
     23 S         137.6188  139.8485  160.4992 S.3     1  UNL1       -0.0756
     24 C         139.4063  143.2385  159.8837 C.ar    1  UNL1        0.2029
     25 N         138.5918  143.5573  161.1023 N.ar    1  UNL1       -0.1250
     26 N         137.8231  142.3262  161.4812 N.ar    1  UNL1       -0.1220
     27 C         138.1625  141.2465  160.4968 C.ar    1  UNL1        0.1933
     28 N         139.1410  141.8103  159.5095 N.ar    1  UNL1       -0.2860
     29 C         139.7476  141.0750  158.3513 C.3     1  UNL1        0.1341
     30 C         142.6073  143.5797  160.4197 C.3     1  UNL1        0.0556
     31 C         141.7962  144.3389  159.4119 C.ar    1  UNL1        0.1001
     32 N         142.3140  145.3883  158.4734 N.ar    1  UNL1       -0.2085
     33 C         141.1627  145.8800  157.6471 C.ar    1  UNL1        0.2849
     34 O         139.9334  145.1345  158.0748 O.2     1  UNL1       -0.4283
     35 C         140.3249  144.1821  159.1655 C.ar    1  UNL1        0.1964
@<TRIPOS>BOND
     1    30    31    1
     2    31    32   ar
     3    32    33   ar
     4    33    34   ar
     5    34    35   ar
     6    35    24    1
     7    24    25   ar
     8    25    26   ar
     9    26    27   ar
    10    27    23    1
    11    23    22    1
    12    22    21    1
    13    21    20    1
    14    20     1    1
    15     1     2    1
    16     2     3    1
    17     3     4    1
    18     4     5    1
    19     5     6    1
    20     6     9    1
    21     9    10   ar
    22    10    11   ar
    23    11    12   ar
    24    12    13   ar
    25    13    14   ar
    26    14    15    1
    27    15    16    1
    28    16    17    1
    29    16    18    1
    30    16    19    1
    31     6     7    1
    32     7     8    1
    33    27    28   ar
    34    28    29    1
    35    35    31   ar
    36    28    24   ar
    37     8     1    1
    38     7     3    1
    39    14     9   ar
@<TRIPOS>MOLECULE
*****
 35 39 0 0 0
SMALL
GASTEIGER

@<TRIPOS>ATOM
      1 N         142.2474  138.6300  164.1372 N.3     1  UNL1       -0.2712
      2 C         143.5870  138.8168  164.7856 C.3     1  UNL1        0.0738
      3 C         144.2972  139.9276  164.0703 C.3     1  UNL1        0.0372
      4 C         145.5642  140.7296  164.0290 C.3     1  UNL1        0.0245
      5 C         145.4465  141.7251  162.9131 C.3     1  UNL1        0.0910
      6 N         144.1068  141.5382  162.2647 N.pl3   1  UNL1       -0.3054
      7 C         143.3965  140.4274  162.9799 C.3     1  UNL1        0.0901
      8 C         142.1296  139.6254  163.0212 C.3     1  UNL1        0.0921
      9 C         143.5713  142.3243  161.1048 C.ar    1  UNL1        0.0826
     10 C         144.0311  142.0126  159.7114 C.ar    1  UNL1        0.0176
     11 C         143.4957  142.7987  158.5515 C.ar    1  UNL1        0.0015
     12 C         142.5005  143.8964  158.7849 C.ar    1  UNL1        0.0032
     13 C         142.0407  144.2081  160.1783 C.ar    1  UNL1        0.0385
     14 C         142.5761  143.4221  161.3382 C.ar    1  UNL1        0.1600
     15 O         142.1163  143.7337  162.7315 O.3     1  UNL1       -0.4032
     16 C         143.0559  144.3833  163.7036 C.3     1  UNL1        0.5753
     17 F         143.9956  145.0330  164.6758 F       1  UNL1       -0.1328
     18 F         143.7410  145.0881  162.5705 F       1  UNL1       -0.1328
     19 F         142.3709  143.6786  164.8367 F       1  UNL1       -0.1328
     20 C         141.2079  137.6243  164.5349 C.3     1  UNL1        0.0731
     21 C         139.7559  137.9090  164.2883 C.3     1  UNL1        0.0294
     22 C         138.7808  137.8744  165.4276 C.3     1  UNL1        0.0666
     23 S         138.3050  139.1551  166.0467 S.3     1  UNL1       -0.0756
     24 C         140.4606  140.7986  168.8249 C.ar    1  UNL1        0.2029
     25 N         139.4142  140.1024  169.6436 N.ar    1  UNL1       -0.1250
     26 N         138.4794  139.4020  168.7026 N.ar    1  UNL1       -0.1220
     27 C         138.9480  139.6653  167.3022 C.ar    1  UNL1        0.1933
     28 N         140.1724  140.5285  167.3777 N.ar    1  UNL1       -0.2860
     29 C         140.9689  141.0329  166.2110 C.3     1  UNL1        0.1341
     30 C         140.2413  143.8313  170.0099 C.3     1  UNL1        0.0556
     31 C         141.4950  143.0146  169.9040 C.ar    1  UNL1        0.1001
     32 N         142.8680  143.4484  170.3242 N.ar    1  UNL1       -0.2085
     33 C         143.8174  142.3226  170.0392 C.ar    1  UNL1        0.2849
     34 O         143.0311  141.1929  169.4429 O.2     1  UNL1       -0.4283
     35 C         141.5958  141.6206  169.3593 C.ar    1  UNL1        0.1964
@<TRIPOS>BOND
     1    30    31    1
     2    31    32   ar
     3    32    33   ar
     4    33    34   ar
     5    34    35   ar
     6    35    24    1
     7    24    25   ar
     8    25    26   ar
     9    26    27   ar
    10    27    23    1
    11    23    22    1
    12    22    21    1
    13    21    20    1
    14    20     1    1
    15     1     2    1
    16     2     3    1
    17     3     4    1
    18     4     5    1
    19     5     6    1
    20     6     9    1
    21     9    10   ar
    22    10    11   ar
    23    11    12   ar
    24    12    13   ar
    25    13    14   ar
    26    14    15    1
    27    15    16    1
    28    16    17    1
    29    16    18    1
    30    16    19    1
    31     6     7    1
    32     7     8    1
    33    27    28   ar
    34    28    29    1
    35    35    31   ar
    36    28    24   ar
    37     8     1    1
    38     7     3    1
    39    14     9   ar
@<TRIPOS>MOLECULE
*****
 35 39 0 0 0
SMALL
GASTEIGER

@<TRIPOS>ATOM
      1 N         138.1806  140.7764  162.4524 N.3     1  UNL1       -0.2712
      2 C         137.1446  141.6335  163.1173 C.3     1  UNL1        0.0738
      3 C         137.8555  142.7081  163.8853 C.3     1  UNL1        0.0372
      4 C         137.6545  143.9020  164.7708 C.3     1  UNL1        0.0245
      5 C         139.0056  144.4470  165.1279 C.3     1  UNL1        0.0910
      6 N         140.0417  143.5899  164.4629 N.pl3   1  UNL1       -0.3054
      7 C         139.3308  142.5153  163.6949 C.3     1  UNL1        0.0901
      8 C         139.5317  141.3214  162.8094 C.3     1  UNL1        0.0921
      9 C         141.5276  143.7750  164.5505 C.ar    1  UNL1        0.0826
     10 C         142.3547  142.8266  165.3669 C.ar    1  UNL1        0.0176
     11 C         143.8407  143.0117  165.4545 C.ar    1  UNL1        0.0015
     12 C         144.4995  144.1452  164.7258 C.ar    1  UNL1        0.0032
     13 C         143.6724  145.0937  163.9094 C.ar    1  UNL1        0.0385
     14 C         142.1865  144.9086  163.8218 C.ar    1  UNL1        0.1600
     15 O         141.3594  145.8570  163.0055 O.3     1  UNL1       -0.4032
     16 C         140.6898  145.3794  161.7511 C.3     1  UNL1        0.5753
     17 F         140.0202  144.9018  160.4966 F       1  UNL1       -0.1328
     18 F         141.9975  144.8310  161.2619 F       1  UNL1       -0.1328
     19 F         139.3822  145.9278  162.2403 F       1  UNL1       -0.1328
     20 C         137.9125  139.5838  161.5830 C.3     1  UNL1        0.0731
     21 C         138.4590  138.2399  161.9641 C.3     1  UNL1        0.0294
     22 C         139.9054  138.0959  162.3349 C.3     1  UNL1        0.0666
     23 S         140.2842  137.5366  163.6741 S.3     1  UNL1       -0.0756
     24 C         140.6709  139.6309  166.9191 C.ar    1  UNL1        0.2029
     25 N         139.1927  139.7305  166.6842 N.ar    1  UNL1       -0.1250
     26 N         138.8680  138.9581  165.4401 N.ar    1  UNL1       -0.1220
     27 C         140.1454  138.3811  164.9060 C.ar    1  UNL1        0.1933
     28 N         141.2597  138.7969  165.8201 N.ar    1  UNL1       -0.2860
     29 C         142.7084  138.4412  165.6627 C.3     1  UNL1        0.1341
     30 C         140.2252  142.6427  168.0940 C.3     1  UNL1        0.0556
     31 C         141.2225  141.6400  168.5938 C.ar    1  UNL1        0.1001
     32 N         142.1901  141.8455  169.7214 N.ar    1  UNL1       -0.2085
     33 C         142.9930  140.5882  169.8783 C.ar    1  UNL1        0.2849
     34 O         142.5216  139.6056  168.8477 O.2     1  UNL1       -0.4283
     35 C         141.4274  140.2556  168.0538 C.ar    1  UNL1        0.1964
@<TRIPOS>BOND
     1    30    31    1
     2    31    32   ar
     3    32    33   ar
     4    33    34   ar
     5    34    35   ar
     6    35    24    1
     7    24    25   ar
     8    25    26   ar
     9    26    27   ar
    10    27    23    1
    11    23    22    1
    12    22    21    1
    13    21    20    1
    14    20     1    1
    15     1     2    1
    16     2     3    1
    17     3     4    1
    18     4     5    1
    19     5     6    1
    20     6     9    1
    21     9    10   ar
    22    10    11   ar
    23    11    12   ar
    24    12    13   ar
    25    13    14   ar
    26    14    15    1
    27    15    16    1
    28    16    17    1
    29    16    18    1
    30    16    19    1
    31     6     7    1
    32     7     8    1
    33    27    28   ar
    34    28    29    1
    35    35    31   ar
    36    28    24   ar
    37     8     1    1
    38     7     3    1
    39    14     9   ar
@<TRIPOS>MOLECULE
*****
 35 39 0 0 0
SMALL
GASTEIGER

@<TRIPOS>ATOM
      1 N         143.6118  143.0537  164.3588 N.3     1  UNL1       -0.2712
      2 C         144.7069  142.0398  164.2073 C.3     1  UNL1        0.0738
      3 C         144.1574  140.7015  164.6035 C.3     1  UNL1        0.0372
      4 C         144.4946  139.2477  164.7548 C.3     1  UNL1        0.0245
      5 C         143.2684  138.5360  165.2447 C.3     1  UNL1        0.0910
      6 N         142.1734  139.5499  165.3962 N.pl3   1  UNL1       -0.3054
      7 C         142.7228  140.8883  165.0000 C.3     1  UNL1        0.0901
      8 C         142.3857  142.3420  164.8487 C.3     1  UNL1        0.0921
      9 C         140.7746  139.2740  165.8622 C.ar    1  UNL1        0.0826
     10 C         139.8767  138.3846  165.0543 C.ar    1  UNL1        0.0176
     11 C         138.4779  138.1086  165.5203 C.ar    1  UNL1        0.0015
     12 C         137.9769  138.7220  166.7941 C.ar    1  UNL1        0.0032
     13 C         138.8748  139.6115  167.6021 C.ar    1  UNL1        0.0385
     14 C         140.2737  139.8875  167.1361 C.ar    1  UNL1        0.1600
     15 O         141.1715  140.7769  167.9440 O.3     1  UNL1       -0.4032
     16 C         140.6865  142.1233  168.3932 C.3     1  UNL1        0.5753
     17 F         140.2014  143.4698  168.8423 F       1  UNL1       -0.1328
     18 F         140.0881  142.3598  167.0381 F       1  UNL1       -0.1328
     19 F         141.2849  141.8868  169.7481 F       1  UNL1       -0.1328
     20 C         143.7234  144.5216  164.0710 C.3     1  UNL1        0.0731
     21 C         142.8218  145.1572  163.0546 C.3     1  UNL1        0.0294
     22 C         141.3832  145.4205  163.3884 C.3     1  UNL1        0.0666
     23 S         140.3796  145.6038  162.2888 S.3     1  UNL1       -0.0756
     24 C         138.9126  142.3849  160.6914 C.ar    1  UNL1        0.2029
     25 N         137.7290  142.8920  161.4608 N.ar    1  UNL1       -0.1250
     26 N         138.1345  144.1595  162.1529 N.ar    1  UNL1       -0.1220
     27 C         139.5687  144.4358  161.8111 C.ar    1  UNL1        0.1933
     28 N         140.0496  143.3391  160.9079 N.ar    1  UNL1       -0.2860
     29 C         141.4259  143.2178  160.3237 C.3     1  UNL1        0.1341
     30 C         138.3228  139.3488  161.7325 C.3     1  UNL1        0.0556
     31 C         138.6811  139.7464  160.3312 C.ar    1  UNL1        0.1001
     32 N         138.8312  138.8182  159.1625 N.ar    1  UNL1       -0.2085
     33 C         139.1951  139.6401  157.9616 C.ar    1  UNL1        0.2849
     34 O         139.2699  141.0762  158.3882 O.2     1  UNL1       -0.4283
     35 C         138.9522  141.1419  159.8527 C.ar    1  UNL1        0.1964
@<TRIPOS>BOND
     1    30    31    1
     2    31    32   ar
     3    32    33   ar
     4    33    34   ar
     5    34    35   ar
     6    35    24    1
     7    24    25   ar
     8    25    26   ar
     9    26    27   ar
    10    27    23    1
    11    23    22    1
    12    22    21    1
    13    21    20    1
    14    20     1    1
    15     1     2    1
    16     2     3    1
    17     3     4    1
    18     4     5    1
    19     5     6    1
    20     6     9    1
    21     9    10   ar
    22    10    11   ar
    23    11    12   ar
    24    12    13   ar
    25    13    14   ar
    26    14    15    1
    27    15    16    1
    28    16    17    1
    29    16    18    1
    30    16    19    1
    31     6     7    1
    32     7     8    1
    33    27    28   ar
    34    28    29    1
    35    35    31   ar
    36    28    24   ar
    37     8     1    1
    38     7     3    1
    39    14     9   ar
@<TRIPOS>MOLECULE
*****
 35 39 0 0 0
SMALL
GASTEIGER

@<TRIPOS>ATOM
      1 N         141.9502  138.3340  163.7595 N.3     1  UNL1       -0.2712
      2 C         140.6962  137.5139  163.6887 C.3     1  UNL1        0.0738
      3 C         139.7857  137.9631  164.7930 C.3     1  UNL1        0.0372
      4 C         138.4480  137.7338  165.4317 C.3     1  UNL1        0.0245
      5 C         138.3125  138.6897  166.5797 C.3     1  UNL1        0.0910
      6 N         139.5666  139.5098  166.6505 N.pl3   1  UNL1       -0.3054
      7 C         140.4770  139.0607  165.5462 C.3     1  UNL1        0.0901
      8 C         141.8147  139.2899  164.9075 C.3     1  UNL1        0.0921
      9 C         139.8588  140.5894  167.6500 C.ar    1  UNL1        0.0826
     10 C         139.8801  140.2691  169.1152 C.ar    1  UNL1        0.0176
     11 C         140.1724  141.3487  170.1148 C.ar    1  UNL1        0.0015
     12 C         140.4433  142.7486  169.6491 C.ar    1  UNL1        0.0032
     13 C         140.4220  143.0689  168.1838 C.ar    1  UNL1        0.0385
     14 C         140.1297  141.9893  167.1842 C.ar    1  UNL1        0.1600
     15 O         140.1084  142.3096  165.7190 O.3     1  UNL1       -0.4032
     16 C         138.9638  143.0852  165.1375 C.3     1  UNL1        0.5753
     17 F         137.8191  143.8609  164.5559 F       1  UNL1       -0.1328
     18 F         139.7222  144.3622  165.3477 F       1  UNL1       -0.1328
     19 F         138.2054  141.8083  164.9273 F       1  UNL1       -0.1328
     20 C         143.1321  138.2184  162.8432 C.3     1  UNL1        0.0731
     21 C         142.9538  138.3900  161.3637 C.3     1  UNL1        0.0294
     22 C         144.0633  138.9687  160.5366 C.3     1  UNL1        0.0666
     23 S         143.7929  140.1295  159.6259 S.3     1  UNL1       -0.0756
     24 C         142.3151  143.4861  160.8968 C.ar    1  UNL1        0.2029
     25 N         143.7562  143.6386  161.2843 N.ar    1  UNL1       -0.1250
     26 N         144.4851  142.3998  160.8554 N.ar    1  UNL1       -0.1220
     27 C         143.4946  141.4816  160.2028 C.ar    1  UNL1        0.1933
     28 N         142.1535  142.1529  160.2284 N.ar    1  UNL1       -0.2860
     29 C         140.8751  141.5901  159.6815 C.3     1  UNL1        0.1341
     30 C         140.8528  145.3085  158.6187 C.3     1  UNL1        0.0556
     31 C         140.5546  145.3280  160.0886 C.ar    1  UNL1        0.1001
     32 N         139.5320  146.1886  160.7695 N.ar    1  UNL1       -0.2085
     33 C         139.5722  145.8828  162.2375 C.ar    1  UNL1        0.2849
     34 O         140.6196  144.8332  162.4638 O.2     1  UNL1       -0.4283
     35 C         141.2268  144.4904  161.1358 C.ar    1  UNL1        0.1964
@<TRIPOS>BOND
     1    30    31    1
     2    31    32   ar
     3    32    33   ar
     4    33    34   ar
     5    34    35   ar
     6    35    24    1
     7    24    25   ar
     8    25    26   ar
     9    26    27   ar
    10    27    23    1
    11    23    22    1
    12    22    21    1
    13    21    20    1
    14    20     1    1
    15     1     2    1
    16     2     3    1
    17     3     4    1
    18     4     5    1
    19     5     6    1
    20     6     9    1
    21     9    10   ar
    22    10    11   ar
    23    11    12   ar
    24    12    13   ar
    25    13    14   ar
    26    14    15    1
    27    15    16    1
    28    16    17    1
    29    16    18    1
    30    16    19    1
    31     6     7    1
    32     7     8    1
    33    27    28   ar
    34    28    29    1
    35    35    31   ar
    36    28    24   ar
    37     8     1    1
    38     7     3    1
    39    14     9   ar
