@<TRIPOS>MOLECULE
*****
 35 38 0 0 0
SMALL
GASTEIGER

@<TRIPOS>ATOM
      1 C         142.1445  141.0904  162.5056 C.ar    1  UNL1        0.0635
      2 C         141.8027  141.3933  163.9344 C.ar    1  UNL1        0.0171
      3 C         142.6950  140.9079  165.0382 C.ar    1  UNL1        0.0190
      4 C         143.9290  140.1196  164.7131 C.ar    1  UNL1        0.0023
      5 C         144.2708  139.8166  163.2843 C.ar    1  UNL1        0.0116
      6 C         143.3785  140.3020  162.1805 C.ar    1  UNL1        0.0821
      7 C         142.3533  141.2108  166.4669 C.ar    1  UNL1        0.0829
      8 C         143.1483  142.0761  167.3993 C.ar    1  UNL1        0.0246
      9 C         142.4428  142.1017  168.7227 C.ar    1  UNL1        0.0933
     10 C         141.2118  141.2523  168.6084 C.ar    1  UNL1        0.1178
     11 C         140.1340  140.9092  169.5936 C.ar    1  UNL1        0.1450
     12 N         140.1894  141.4597  170.9878 N.pl3   1  UNL1       -0.3414
     13 N         139.0010  140.0154  169.1846 N.ar    1  UNL1       -0.2065
     14 C         138.9456  139.4648  167.7904 C.ar    1  UNL1        0.2211
     15 N         140.0234  139.8080  166.8052 N.ar    1  UNL1       -0.1422
     16 N         141.1564  140.7018  167.2142 N.ar    1  UNL1       -0.2255
     17 H         140.9331  142.0464  171.2562 H       1  UNL1        0.1438
     18 H         139.4820  141.2345  171.6344 H       1  UNL1        0.1438
     19 C         142.8899  142.8460  169.9459 C.3     1  UNL1        0.4201
     20 F         143.3370  143.5903  171.1691 F       1  UNL1       -0.1658
     21 F         144.0584  141.9159  170.0848 F       1  UNL1       -0.1658
     22 F         141.7214  143.7761  169.8070 F       1  UNL1       -0.1658
     23 C         138.1036  140.3396  159.3264 C.3     1  UNL1        0.0338
     24 C         139.2318  141.2005  159.8123 C.3     1  UNL1        0.1341
     25 O         139.4676  142.5468  159.1945 O.3     1  UNL1       -0.3507
     26 C         140.5958  143.4077  159.6804 C.3     1  UNL1        0.1612
     27 C         140.0268  144.2998  158.6173 C.3     1  UNL1        0.0391
     28 C         141.5264  144.5784  159.7970 C.3     1  UNL1        0.0391
     29 C         141.4882  142.9222  160.7841 C.2     1  UNL1        0.2537
     30 O         142.6163  143.7830  161.2700 O.2     1  UNL1       -0.2720
     31 N         141.2522  141.5758  161.4019 N.am    1  UNL1       -0.2554
     32 C         140.1240  140.7149  160.9160 C.3     1  UNL1        0.1070
     33 C         139.8881  139.3686  161.5338 C.3     1  UNL1        0.0245
     34 C         143.7203  139.9990  160.7517 C.1     1  UNL1        0.1017
     35 N         144.0622  139.6960  159.3231 N.1     1  UNL1       -0.1908
@<TRIPOS>BOND
     1    24    23    1
     2    24    25    1
     3    25    26    1
     4    26    27    1
     5    26    28    1
     6    26    29    1
     7    29    30    2
     8    29    31   am
     9    31     1    1
    10     1     2   ar
    11     2     3   ar
    12     3     7    1
    13     7     8   ar
    14     8     9   ar
    15     9    19    1
    16    19    20    1
    17    19    21    1
    18    19    22    1
    19     9    10   ar
    20    10    11   ar
    21    11    12    1
    22    11    13   ar
    23    13    14   ar
    24    14    15   ar
    25    15    16   ar
    26     3     4   ar
    27     4     5   ar
    28     5     6   ar
    29     6    34    1
    30    34    35    3
    31    31    32    1
    32    32    33    1
    33    32    24    1
    34     6     1   ar
    35    16     7   ar
    36    16    10   ar
    37    12    17    1
    38    12    18    1
@<TRIPOS>MOLECULE
*****
 35 38 0 0 0
SMALL
GASTEIGER

@<TRIPOS>ATOM
      1 C         142.0715  141.0017  162.4833 C.ar    1  UNL1        0.0635
      2 C         141.7269  141.2926  163.9140 C.ar    1  UNL1        0.0171
      3 C         142.6873  140.9256  165.0063 C.ar    1  UNL1        0.0190
      4 C         143.9922  140.2679  164.6679 C.ar    1  UNL1        0.0023
      5 C         144.3368  139.9771  163.2373 C.ar    1  UNL1        0.0116
      6 C         143.3764  140.3440  162.1450 C.ar    1  UNL1        0.0821
      7 C         142.3427  141.2164  166.4369 C.ar    1  UNL1        0.0829
      8 C         143.1321  142.0794  167.3761 C.ar    1  UNL1        0.0246
      9 C         142.4255  142.0916  168.6991 C.ar    1  UNL1        0.0933
     10 C         141.1993  141.2362  168.5777 C.ar    1  UNL1        0.1178
     11 C         140.1228  140.8800  169.5595 C.ar    1  UNL1        0.1450
     12 N         140.1739  141.4209  170.9577 N.pl3   1  UNL1       -0.3414
     13 N         138.9951  139.9828  169.1433 N.ar    1  UNL1       -0.2065
     14 C         138.9439  139.4418  167.7451 C.ar    1  UNL1        0.2211
     15 N         140.0204  139.7981  166.7633 N.ar    1  UNL1       -0.1422
     16 N         141.1481  140.6953  167.1795 N.ar    1  UNL1       -0.2255
     17 H         140.9141  142.0097  171.2309 H       1  UNL1        0.1438
     18 H         139.4673  141.1870  171.6021 H       1  UNL1        0.1438
     19 C         142.8674  142.8297  169.9279 C.3     1  UNL1        0.4201
     20 F         143.3093  143.5678  171.1568 F       1  UNL1       -0.1658
     21 F         144.0248  141.8874  170.0777 F       1  UNL1       -0.1658
     22 F         141.7100  143.7720  169.7782 F       1  UNL1       -0.1658
     23 C         140.2396  144.4758  159.0812 C.3     1  UNL1        0.0338
     24 C         140.1951  143.1057  159.6901 C.3     1  UNL1        0.1341
     25 O         139.1902  142.1024  159.2067 O.3     1  UNL1       -0.3507
     26 C         139.1457  140.7323  159.8155 C.3     1  UNL1        0.1612
     27 C         138.0360  140.6084  158.8140 C.3     1  UNL1        0.0391
     28 C         138.7158  139.3191  160.0765 C.3     1  UNL1        0.0391
     29 C         140.1062  140.3654  160.9078 C.2     1  UNL1        0.2537
     30 O         140.0617  138.9953  161.5167 O.2     1  UNL1       -0.2720
     31 N         141.1111  141.3687  161.3912 N.am    1  UNL1       -0.2554
     32 C         141.1556  142.7388  160.7823 C.3     1  UNL1        0.1070
     33 C         142.1605  143.7421  161.2656 C.3     1  UNL1        0.0245
     34 C         143.7210  140.0531  160.7144 C.1     1  UNL1        0.1017
     35 N         144.0657  139.7624  159.2838 N.1     1  UNL1       -0.1908
@<TRIPOS>BOND
     1    24    23    1
     2    24    25    1
     3    25    26    1
     4    26    27    1
     5    26    28    1
     6    26    29    1
     7    29    30    2
     8    29    31   am
     9    31     1    1
    10     1     2   ar
    11     2     3   ar
    12     3     7    1
    13     7     8   ar
    14     8     9   ar
    15     9    19    1
    16    19    20    1
    17    19    21    1
    18    19    22    1
    19     9    10   ar
    20    10    11   ar
    21    11    12    1
    22    11    13   ar
    23    13    14   ar
    24    14    15   ar
    25    15    16   ar
    26     3     4   ar
    27     4     5   ar
    28     5     6   ar
    29     6    34    1
    30    34    35    3
    31    31    32    1
    32    32    33    1
    33    32    24    1
    34     6     1   ar
    35    16     7   ar
    36    16    10   ar
    37    12    17    1
    38    12    18    1
@<TRIPOS>MOLECULE
*****
 35 38 0 0 0
SMALL
GASTEIGER

@<TRIPOS>ATOM
      1 C         141.8329  140.2570  164.8023 C.ar    1  UNL1        0.0635
      2 C         141.4575  141.1371  163.6471 C.ar    1  UNL1        0.0171
      3 C         142.4253  141.3502  162.5211 C.ar    1  UNL1        0.0190
      4 C         143.7685  140.6832  162.5503 C.ar    1  UNL1        0.0023
      5 C         144.1439  139.8031  163.7055 C.ar    1  UNL1        0.0116
      6 C         143.1761  139.5900  164.8315 C.ar    1  UNL1        0.0821
      7 C         142.0499  142.2304  161.3659 C.ar    1  UNL1        0.0829
      8 C         142.4111  142.0002  159.9283 C.ar    1  UNL1        0.0246
      9 C         141.8318  143.1228  159.1195 C.ar    1  UNL1        0.0933
     10 C         141.1126  144.0467  160.0572 C.ar    1  UNL1        0.1178
     11 C         140.3524  145.3190  159.8261 C.ar    1  UNL1        0.1450
     12 N         140.2176  145.8706  158.4377 N.pl3   1  UNL1       -0.3414
     13 N         139.7271  146.0397  160.9835 N.ar    1  UNL1       -0.2065
     14 C         139.8619  145.4881  162.3718 C.ar    1  UNL1        0.2211
     15 N         140.6221  144.2159  162.6029 N.ar    1  UNL1       -0.1422
     16 N         141.2475  143.4952  161.4455 N.ar    1  UNL1       -0.2255
     17 H         140.6281  145.3975  157.6781 H       1  UNL1        0.1438
     18 H         139.7187  146.7056  158.2861 H       1  UNL1        0.1438
     19 C         141.9507  143.2918  157.6338 C.3     1  UNL1        0.4201
     20 F         142.0696  143.4608  156.1481 F       1  UNL1       -0.1658
     21 F         140.5899  142.6865  157.4560 F       1  UNL1       -0.1658
     22 F         143.3115  143.8972  157.8116 F       1  UNL1       -0.1658
     23 C         137.6688  137.8439  166.7612 C.3     1  UNL1        0.0338
     24 C         138.7830  138.8374  166.9077 C.3     1  UNL1        0.1341
     25 O         138.9293  139.6178  168.1804 O.3     1  UNL1       -0.3507
     26 C         140.0436  140.6113  168.3269 C.3     1  UNL1        0.1612
     27 C         139.3831  140.7615  169.6652 C.3     1  UNL1        0.0391
     28 C         140.9284  141.6570  168.9383 C.3     1  UNL1        0.0391
     29 C         141.0114  140.8244  167.2008 C.2     1  UNL1        0.2537
     30 O         142.1257  141.8179  167.3474 O.2     1  UNL1       -0.2720
     31 N         140.8650  140.0439  165.9283 N.am    1  UNL1       -0.2554
     32 C         139.7508  139.0504  165.7817 C.3     1  UNL1        0.1070
     33 C         139.6044  138.2699  164.5091 C.3     1  UNL1        0.0245
     34 C         143.5515  138.7098  165.9867 C.1     1  UNL1        0.1017
     35 N         143.9270  137.8298  167.1418 N.1     1  UNL1       -0.1908
@<TRIPOS>BOND
     1    24    23    1
     2    24    25    1
     3    25    26    1
     4    26    27    1
     5    26    28    1
     6    26    29    1
     7    29    30    2
     8    29    31   am
     9    31     1    1
    10     1     2   ar
    11     2     3   ar
    12     3     7    1
    13     7     8   ar
    14     8     9   ar
    15     9    19    1
    16    19    20    1
    17    19    21    1
    18    19    22    1
    19     9    10   ar
    20    10    11   ar
    21    11    12    1
    22    11    13   ar
    23    13    14   ar
    24    14    15   ar
    25    15    16   ar
    26     3     4   ar
    27     4     5   ar
    28     5     6   ar
    29     6    34    1
    30    34    35    3
    31    31    32    1
    32    32    33    1
    33    32    24    1
    34     6     1   ar
    35    16     7   ar
    36    16    10   ar
    37    12    17    1
    38    12    18    1
@<TRIPOS>MOLECULE
*****
 35 38 0 0 0
SMALL
GASTEIGER

@<TRIPOS>ATOM
      1 C         141.7259  140.2497  164.8614 C.ar    1  UNL1        0.0635
      2 C         141.3835  141.1204  163.6889 C.ar    1  UNL1        0.0171
      3 C         142.4275  141.4366  162.6593 C.ar    1  UNL1        0.0190
      4 C         143.8138  140.8821  162.8022 C.ar    1  UNL1        0.0023
      5 C         144.1563  140.0114  163.9747 C.ar    1  UNL1        0.0116
      6 C         143.1123  139.6952  165.0043 C.ar    1  UNL1        0.0821
      7 C         142.0851  142.3073  161.4868 C.ar    1  UNL1        0.0829
      8 C         142.5354  142.0974  160.0714 C.ar    1  UNL1        0.0246
      9 C         141.9608  143.2011  159.2338 C.ar    1  UNL1        0.0933
     10 C         141.1554  144.0931  160.1314 C.ar    1  UNL1        0.1178
     11 C         140.3621  145.3370  159.8607 C.ar    1  UNL1        0.1450
     12 N         140.2853  145.8894  158.4683 N.pl3   1  UNL1       -0.3414
     13 N         139.6455  146.0284  160.9825 N.ar    1  UNL1       -0.2065
     14 C         139.7223  145.4760  162.3750 C.ar    1  UNL1        0.2211
     15 N         140.5157  144.2321  162.6456 N.ar    1  UNL1       -0.1422
     16 N         141.2322  143.5407  161.5239 N.ar    1  UNL1       -0.2255
     17 H         140.7556  145.4356  157.7320 H       1  UNL1        0.1438
     18 H         139.7645  146.7058  158.2906 H       1  UNL1        0.1438
     19 C         142.1571  143.3812  157.7576 C.3     1  UNL1        0.4201
     20 F         142.3536  143.5614  156.2815 F       1  UNL1       -0.1658
     21 F         143.4975  144.0046  158.0120 F       1  UNL1       -0.1658
     22 F         140.8168  142.7579  157.5033 F       1  UNL1       -0.1658
     23 C         139.6011  141.1045  169.5255 C.3     1  UNL1        0.0338
     24 C         139.6194  140.3609  168.2230 C.3     1  UNL1        0.1341
     25 O         138.5936  139.3011  167.9500 O.3     1  UNL1       -0.3507
     26 C         138.6120  138.5574  166.6474 C.3     1  UNL1        0.1612
     27 C         137.4319  137.9042  167.3036 C.3     1  UNL1        0.0391
     28 C         138.2204  137.5869  165.5728 C.3     1  UNL1        0.0391
     29 C         139.6561  138.8737  165.6178 C.2     1  UNL1        0.2537
     30 O         139.6744  138.1301  164.3153 O.2     1  UNL1       -0.2720
     31 N         140.6819  139.9335  165.8909 N.am    1  UNL1       -0.2554
     32 C         140.6635  140.6771  167.1935 C.3     1  UNL1        0.1070
     33 C         141.6893  141.7370  167.4665 C.3     1  UNL1        0.0245
     34 C         143.4547  138.8246  166.1767 C.1     1  UNL1        0.1017
     35 N         143.7971  137.9538  167.3491 N.1     1  UNL1       -0.1908
@<TRIPOS>BOND
     1    24    23    1
     2    24    25    1
     3    25    26    1
     4    26    27    1
     5    26    28    1
     6    26    29    1
     7    29    30    2
     8    29    31   am
     9    31     1    1
    10     1     2   ar
    11     2     3   ar
    12     3     7    1
    13     7     8   ar
    14     8     9   ar
    15     9    19    1
    16    19    20    1
    17    19    21    1
    18    19    22    1
    19     9    10   ar
    20    10    11   ar
    21    11    12    1
    22    11    13   ar
    23    13    14   ar
    24    14    15   ar
    25    15    16   ar
    26     3     4   ar
    27     4     5   ar
    28     5     6   ar
    29     6    34    1
    30    34    35    3
    31    31    32    1
    32    32    33    1
    33    32    24    1
    34     6     1   ar
    35    16     7   ar
    36    16    10   ar
    37    12    17    1
    38    12    18    1
@<TRIPOS>MOLECULE
*****
 35 38 0 0 0
SMALL
GASTEIGER

@<TRIPOS>ATOM
      1 C         140.2895  140.6040  164.9036 C.ar    1  UNL1        0.0635
      2 C         140.7970  141.4039  163.7406 C.ar    1  UNL1        0.0171
      3 C         139.8801  141.7343  162.6003 C.ar    1  UNL1        0.0190
      4 C         138.4558  141.2646  162.6230 C.ar    1  UNL1        0.0023
      5 C         137.9482  140.4647  163.7860 C.ar    1  UNL1        0.0116
      6 C         138.8651  140.1343  164.9263 C.ar    1  UNL1        0.0821
      7 C         140.3877  142.5342  161.4373 C.ar    1  UNL1        0.0829
      8 C         139.6603  143.6529  160.7521 C.ar    1  UNL1        0.0246
      9 C         140.5348  144.1660  159.6468 C.ar    1  UNL1        0.0933
     10 C         141.8027  143.3644  159.6488 C.ar    1  UNL1        0.1178
     11 C         143.0283  143.4226  158.7859 C.ar    1  UNL1        0.1450
     12 N         143.1192  144.4311  157.6792 N.pl3   1  UNL1       -0.3414
     13 N         144.1629  142.4722  159.0297 N.ar    1  UNL1       -0.2065
     14 C         144.0719  141.4638  160.1363 C.ar    1  UNL1        0.2211
     15 N         142.8464  141.4056  160.9992 N.ar    1  UNL1       -0.1422
     16 N         141.7118  142.3559  160.7554 N.ar    1  UNL1       -0.2255
     17 H         142.3745  145.0548  157.5192 H       1  UNL1        0.1438
     18 H         143.9236  144.4692  157.1129 H       1  UNL1        0.1438
     19 C         140.2002  145.2843  158.7047 C.3     1  UNL1        0.4201
     20 F         139.8657  146.4026  157.7627 F       1  UNL1       -0.1658
     21 F         140.9050  146.2543  159.6060 F       1  UNL1       -0.1658
     22 F         139.4955  144.3143  157.8035 F       1  UNL1       -0.1658
     23 C         143.9915  137.6053  166.9780 C.3     1  UNL1        0.0338
     24 C         143.0574  138.7744  167.0810 C.3     1  UNL1        0.1341
     25 O         143.0402  139.6133  168.3245 O.3     1  UNL1       -0.3507
     26 C         142.1061  140.7824  168.4276 C.3     1  UNL1        0.1612
     27 C         142.7798  140.8686  169.7649 C.3     1  UNL1        0.0391
     28 C         141.4060  141.9814  168.9951 C.3     1  UNL1        0.0391
     29 C         141.1891  141.1126  167.2872 C.2     1  UNL1        0.2537
     30 O         140.2550  142.2817  167.3903 O.2     1  UNL1       -0.2720
     31 N         141.2064  140.2737  166.0438 N.am    1  UNL1       -0.2554
     32 C         142.1405  139.1046  165.9408 C.3     1  UNL1        0.1070
     33 C         142.1577  138.2657  164.6974 C.3     1  UNL1        0.0245
     34 C         138.3575  139.3344  166.0892 C.1     1  UNL1        0.1017
     35 N         137.8500  138.5346  167.2522 N.1     1  UNL1       -0.1908
@<TRIPOS>BOND
     1    24    23    1
     2    24    25    1
     3    25    26    1
     4    26    27    1
     5    26    28    1
     6    26    29    1
     7    29    30    2
     8    29    31   am
     9    31     1    1
    10     1     2   ar
    11     2     3   ar
    12     3     7    1
    13     7     8   ar
    14     8     9   ar
    15     9    19    1
    16    19    20    1
    17    19    21    1
    18    19    22    1
    19     9    10   ar
    20    10    11   ar
    21    11    12    1
    22    11    13   ar
    23    13    14   ar
    24    14    15   ar
    25    15    16   ar
    26     3     4   ar
    27     4     5   ar
    28     5     6   ar
    29     6    34    1
    30    34    35    3
    31    31    32    1
    32    32    33    1
    33    32    24    1
    34     6     1   ar
    35    16     7   ar
    36    16    10   ar
    37    12    17    1
    38    12    18    1
@<TRIPOS>MOLECULE
*****
 35 38 0 0 0
SMALL
GASTEIGER

@<TRIPOS>ATOM
      1 C         141.0036  142.7195  162.5594 C.ar    1  UNL1        0.0635
      2 C         141.2271  142.1344  163.9224 C.ar    1  UNL1        0.0171
      3 C         140.7612  142.8738  165.1416 C.ar    1  UNL1        0.0190
      4 C         140.0719  144.1982  164.9977 C.ar    1  UNL1        0.0023
      5 C         139.8484  144.7833  163.6347 C.ar    1  UNL1        0.0116
      6 C         140.3142  144.0440  162.4155 C.ar    1  UNL1        0.0821
      7 C         140.9847  142.2887  166.5046 C.ar    1  UNL1        0.0829
      8 C         140.4651  142.8429  167.7980 C.ar    1  UNL1        0.0246
      9 C         140.9263  141.9434  168.9062 C.ar    1  UNL1        0.0933
     10 C         141.7309  140.8333  168.2977 C.ar    1  UNL1        0.1178
     11 C         142.4354  139.6557  168.9034 C.ar    1  UNL1        0.1450
     12 N         142.3993  139.4423  170.3877 N.pl3   1  UNL1       -0.3414
     13 N         143.1760  138.6916  168.0248 N.ar    1  UNL1       -0.2065
     14 C         143.2120  138.9050  166.5405 C.ar    1  UNL1        0.2211
     15 N         142.5076  140.0826  165.9348 N.ar    1  UNL1       -0.1422
     16 N         141.7670  141.0467  166.8134 N.ar    1  UNL1       -0.2255
     17 H         141.9133  140.0751  170.9643 H       1  UNL1        0.1438
     18 H         142.8617  138.6694  170.7853 H       1  UNL1        0.1438
     19 C         140.6342  142.1225  170.3665 C.3     1  UNL1        0.4201
     20 F         140.3422  142.3017  171.8269 F       1  UNL1       -0.1658
     21 F         142.0052  142.6960  170.5704 F       1  UNL1       -0.1658
     22 F         139.2633  141.5491  170.1627 F       1  UNL1       -0.1658
     23 C         140.1704  139.1708  158.8564 C.3     1  UNL1        0.0338
     24 C         141.0529  140.2058  159.4888 C.3     1  UNL1        0.1341
     25 O         142.4014  140.5014  158.9020 O.3     1  UNL1       -0.3507
     26 C         143.2839  141.5364  159.5344 C.3     1  UNL1        0.1612
     27 C         144.1623  141.1044  158.3979 C.3     1  UNL1        0.0391
     28 C         144.4715  142.4213  159.7721 C.3     1  UNL1        0.0391
     29 C         142.8179  142.2758  160.7536 C.2     1  UNL1        0.2537
     30 O         143.7004  143.3108  161.3860 O.2     1  UNL1       -0.2720
     31 N         141.4694  141.9802  161.3403 N.am    1  UNL1       -0.2554
     32 C         140.5869  140.9452  160.7079 C.3     1  UNL1        0.1070
     33 C         139.2384  140.6495  161.2946 C.3     1  UNL1        0.0245
     34 C         140.0907  144.6290  161.0525 C.1     1  UNL1        0.1017
     35 N         139.8674  145.2141  159.6896 N.1     1  UNL1       -0.1908
@<TRIPOS>BOND
     1    24    23    1
     2    24    25    1
     3    25    26    1
     4    26    27    1
     5    26    28    1
     6    26    29    1
     7    29    30    2
     8    29    31   am
     9    31     1    1
    10     1     2   ar
    11     2     3   ar
    12     3     7    1
    13     7     8   ar
    14     8     9   ar
    15     9    19    1
    16    19    20    1
    17    19    21    1
    18    19    22    1
    19     9    10   ar
    20    10    11   ar
    21    11    12    1
    22    11    13   ar
    23    13    14   ar
    24    14    15   ar
    25    15    16   ar
    26     3     4   ar
    27     4     5   ar
    28     5     6   ar
    29     6    34    1
    30    34    35    3
    31    31    32    1
    32    32    33    1
    33    32    24    1
    34     6     1   ar
    35    16     7   ar
    36    16    10   ar
    37    12    17    1
    38    12    18    1
@<TRIPOS>MOLECULE
*****
 35 38 0 0 0
SMALL
GASTEIGER

@<TRIPOS>ATOM
      1 C         139.9316  140.9939  161.2666 C.ar    1  UNL1        0.0635
      2 C         140.3980  140.9889  162.6923 C.ar    1  UNL1        0.0171
      3 C         139.6134  140.2498  163.7355 C.ar    1  UNL1        0.0190
      4 C         138.3625  139.5158  163.3530 C.ar    1  UNL1        0.0023
      5 C         137.8961  139.5208  161.9274 C.ar    1  UNL1        0.0116
      6 C         138.6806  140.2598  160.8842 C.ar    1  UNL1        0.0821
      7 C         140.0797  140.2447  165.1612 C.ar    1  UNL1        0.0829
      8 C         139.3762  140.8844  166.3212 C.ar    1  UNL1        0.0246
      9 C         140.1932  140.6342  167.5540 C.ar    1  UNL1        0.0933
     10 C         141.4017  139.8398  167.1559 C.ar    1  UNL1        0.1178
     11 C         142.5570  139.3046  167.9489 C.ar    1  UNL1        0.1450
     12 N         142.6271  139.5453  169.4278 N.pl3   1  UNL1       -0.3414
     13 N         143.6421  138.5287  167.2630 N.ar    1  UNL1       -0.2065
     14 C         143.5719  138.2880  165.7841 C.ar    1  UNL1        0.2211
     15 N         142.4167  138.8233  164.9911 N.ar    1  UNL1       -0.1422
     16 N         141.3316  139.5992  165.6770 N.ar    1  UNL1       -0.2255
     17 H         141.9149  140.0546  169.8780 H       1  UNL1        0.1438
     18 H         143.3854  139.1940  169.9483 H       1  UNL1        0.1438
     19 C         139.8602  141.0970  168.9415 C.3     1  UNL1        0.4201
     20 F         139.5272  141.5597  170.3289 F       1  UNL1       -0.1658
     21 F         138.8947  139.9586  169.0895 F       1  UNL1       -0.1658
     22 F         140.8257  142.2353  168.7935 F       1  UNL1       -0.1658
     23 C         143.7010  141.0789  157.6912 C.3     1  UNL1        0.0338
     24 C         142.6009  141.7755  158.4358 C.3     1  UNL1        0.1341
     25 O         142.2854  143.2113  158.1373 O.3     1  UNL1       -0.3507
     26 C         141.1853  143.9079  158.8819 C.3     1  UNL1        0.1612
     27 C         141.6430  145.0235  157.9898 C.3     1  UNL1        0.0391
     28 C         140.2441  144.9919  159.3167 C.3     1  UNL1        0.0391
     29 C         140.4007  143.1687  159.9251 C.2     1  UNL1        0.2537
     30 O         139.3006  143.8653  160.6697 O.2     1  UNL1       -0.2720
     31 N         140.7162  141.7329  160.2235 N.am    1  UNL1       -0.2554
     32 C         141.8163  141.0363  159.4789 C.3     1  UNL1        0.1070
     33 C         142.1319  139.6006  159.7774 C.3     1  UNL1        0.0245
     34 C         138.2142  140.2648  159.4585 C.1     1  UNL1        0.1017
     35 N         137.7479  140.2700  158.0329 N.1     1  UNL1       -0.1908
@<TRIPOS>BOND
     1    24    23    1
     2    24    25    1
     3    25    26    1
     4    26    27    1
     5    26    28    1
     6    26    29    1
     7    29    30    2
     8    29    31   am
     9    31     1    1
    10     1     2   ar
    11     2     3   ar
    12     3     7    1
    13     7     8   ar
    14     8     9   ar
    15     9    19    1
    16    19    20    1
    17    19    21    1
    18    19    22    1
    19     9    10   ar
    20    10    11   ar
    21    11    12    1
    22    11    13   ar
    23    13    14   ar
    24    14    15   ar
    25    15    16   ar
    26     3     4   ar
    27     4     5   ar
    28     5     6   ar
    29     6    34    1
    30    34    35    3
    31    31    32    1
    32    32    33    1
    33    32    24    1
    34     6     1   ar
    35    16     7   ar
    36    16    10   ar
    37    12    17    1
    38    12    18    1
@<TRIPOS>MOLECULE
*****
 35 38 0 0 0
SMALL
GASTEIGER

@<TRIPOS>ATOM
      1 C         141.0215  142.9258  162.7703 C.ar    1  UNL1        0.0635
      2 C         141.2663  142.3028  164.1127 C.ar    1  UNL1        0.0171
      3 C         140.7114  142.9446  165.3498 C.ar    1  UNL1        0.0190
      4 C         139.9118  144.2092  165.2444 C.ar    1  UNL1        0.0023
      5 C         139.6670  144.8322  163.9020 C.ar    1  UNL1        0.0116
      6 C         140.2219  144.1905  162.6650 C.ar    1  UNL1        0.0821
      7 C         140.9561  142.3216  166.6922 C.ar    1  UNL1        0.0829
      8 C         140.4694  142.8472  168.0101 C.ar    1  UNL1        0.0246
      9 C         140.9430  141.9140  169.0847 C.ar    1  UNL1        0.0933
     10 C         141.7225  140.8117  168.4310 C.ar    1  UNL1        0.1178
     11 C         142.4259  139.6112  168.9912 C.ar    1  UNL1        0.1450
     12 N         142.4179  139.3593  170.4699 N.pl3   1  UNL1       -0.3414
     13 N         143.1375  138.6625  168.0727 N.ar    1  UNL1       -0.2065
     14 C         143.1455  138.9144  166.5940 C.ar    1  UNL1        0.2211
     15 N         142.4421  140.1149  166.0338 N.ar    1  UNL1       -0.1422
     16 N         141.7306  141.0636  166.9524 N.ar    1  UNL1       -0.2255
     17 H         141.9509  139.9820  171.0727 H       1  UNL1        0.1438
     18 H         142.8796  138.5713  170.8375 H       1  UNL1        0.1438
     19 C         140.6829  142.0579  170.5550 C.3     1  UNL1        0.4201
     20 F         140.4229  142.2019  172.0253 F       1  UNL1       -0.1658
     21 F         141.9613  142.8280  170.7058 F       1  UNL1       -0.1658
     22 F         139.4046  141.2879  170.4042 F       1  UNL1       -0.1658
     23 C         144.8412  142.4343  159.2820 C.3     1  UNL1        0.0338
     24 C         143.4862  142.0382  159.7892 C.3     1  UNL1        0.1341
     25 O         142.6862  141.0003  159.0593 O.3     1  UNL1       -0.3507
     26 C         141.3312  140.6042  159.5665 C.3     1  UNL1        0.1612
     27 C         141.4271  139.7179  158.3602 C.3     1  UNL1        0.0391
     28 C         140.0096  139.9003  159.6547 C.3     1  UNL1        0.0391
     29 C         140.7763  141.2461  160.8036 C.2     1  UNL1        0.2537
     30 O         139.4214  140.8500  161.3107 O.2     1  UNL1       -0.2720
     31 N         141.5764  142.2840  161.5334 N.am    1  UNL1       -0.2554
     32 C         142.9314  142.6800  161.0262 C.3     1  UNL1        0.1070
     33 C         143.7315  143.7180  161.7560 C.3     1  UNL1        0.0245
     34 C         139.9771  144.8134  161.3226 C.1     1  UNL1        0.1017
     35 N         139.7323  145.4363  159.9802 N.1     1  UNL1       -0.1908
@<TRIPOS>BOND
     1    24    23    1
     2    24    25    1
     3    25    26    1
     4    26    27    1
     5    26    28    1
     6    26    29    1
     7    29    30    2
     8    29    31   am
     9    31     1    1
    10     1     2   ar
    11     2     3   ar
    12     3     7    1
    13     7     8   ar
    14     8     9   ar
    15     9    19    1
    16    19    20    1
    17    19    21    1
    18    19    22    1
    19     9    10   ar
    20    10    11   ar
    21    11    12    1
    22    11    13   ar
    23    13    14   ar
    24    14    15   ar
    25    15    16   ar
    26     3     4   ar
    27     4     5   ar
    28     5     6   ar
    29     6    34    1
    30    34    35    3
    31    31    32    1
    32    32    33    1
    33    32    24    1
    34     6     1   ar
    35    16     7   ar
    36    16    10   ar
    37    12    17    1
    38    12    18    1
@<TRIPOS>MOLECULE
*****
 35 38 0 0 0
SMALL
GASTEIGER

@<TRIPOS>ATOM
      1 C         141.5795  141.8143  162.4817 C.ar    1  UNL1        0.0635
      2 C         141.2247  141.4009  163.8793 C.ar    1  UNL1        0.0171
      3 C         141.3675  142.3772  165.0092 C.ar    1  UNL1        0.0190
      4 C         141.8650  143.7667  164.7414 C.ar    1  UNL1        0.0023
      5 C         142.2198  144.1800  163.3438 C.ar    1  UNL1        0.0116
      6 C         142.0770  143.2038  162.2139 C.ar    1  UNL1        0.0821
      7 C         141.0127  141.9639  166.4068 C.ar    1  UNL1        0.0829
      8 C         141.6313  142.4932  167.6667 C.ar    1  UNL1        0.0246
      9 C         140.9780  141.8052  168.8284 C.ar    1  UNL1        0.0933
     10 C         139.9556  140.8506  168.2866 C.ar    1  UNL1        0.1178
     11 C         139.0079  139.9047  168.9627 C.ar    1  UNL1        0.1450
     12 N         138.9864  139.8066  170.4593 N.pl3   1  UNL1       -0.3414
     13 N         138.0816  139.0570  168.1421 N.ar    1  UNL1       -0.2065
     14 C         138.1031  139.1551  166.6455 C.ar    1  UNL1        0.2211
     15 N         139.0508  140.1010  165.9694 N.ar    1  UNL1       -0.1422
     16 N         139.9771  140.9487  166.7900 N.ar    1  UNL1       -0.2255
     17 H         139.5943  140.3630  170.9979 H       1  UNL1        0.1438
     18 H         138.3643  139.1858  170.9030 H       1  UNL1        0.1438
     19 C         141.2919  142.0318  170.2776 C.3     1  UNL1        0.4201
     20 F         141.6057  142.2586  171.7268 F       1  UNL1       -0.1658
     21 F         140.0609  142.8785  170.4118 F       1  UNL1       -0.1658
     22 F         142.5227  141.1853  170.1434 F       1  UNL1       -0.1658
     23 C         138.7915  139.8374  158.5677 C.3     1  UNL1        0.0338
     24 C         140.0428  139.8495  159.3949 C.3     1  UNL1        0.1341
     25 O         141.1513  138.8853  159.0922 O.3     1  UNL1       -0.3507
     26 C         142.4025  138.8974  159.9194 C.3     1  UNL1        0.1612
     27 C         142.7344  137.7921  158.9614 C.3     1  UNL1        0.0391
     28 C         143.7690  138.5256  160.4139 C.3     1  UNL1        0.0391
     29 C         142.5452  139.8738  161.0493 C.2     1  UNL1        0.2537
     30 O         143.7964  139.8860  161.8765 O.2     1  UNL1       -0.2720
     31 N         141.4367  140.8380  161.3519 N.am    1  UNL1       -0.2554
     32 C         140.1855  140.8259  160.5247 C.3     1  UNL1        0.1070
     33 C         139.0769  141.7900  160.8273 C.3     1  UNL1        0.0245
     34 C         142.4318  143.6171  160.8163 C.1     1  UNL1        0.1017
     35 N         142.7865  144.0305  159.4188 N.1     1  UNL1       -0.1908
@<TRIPOS>BOND
     1    24    23    1
     2    24    25    1
     3    25    26    1
     4    26    27    1
     5    26    28    1
     6    26    29    1
     7    29    30    2
     8    29    31   am
     9    31     1    1
    10     1     2   ar
    11     2     3   ar
    12     3     7    1
    13     7     8   ar
    14     8     9   ar
    15     9    19    1
    16    19    20    1
    17    19    21    1
    18    19    22    1
    19     9    10   ar
    20    10    11   ar
    21    11    12    1
    22    11    13   ar
    23    13    14   ar
    24    14    15   ar
    25    15    16   ar
    26     3     4   ar
    27     4     5   ar
    28     5     6   ar
    29     6    34    1
    30    34    35    3
    31    31    32    1
    32    32    33    1
    33    32    24    1
    34     6     1   ar
    35    16     7   ar
    36    16    10   ar
    37    12    17    1
    38    12    18    1
