@<TRIPOS>MOLECULE
*****
 34 37 0 0 0
SMALL
GASTEIGER

@<TRIPOS>ATOM
      1 C         137.6834  140.6076  161.5511 C.3     1  UNL1        0.2722
      2 N         139.5059  142.3738  160.9953 N.am    1  UNL1       -0.2663
      3 C         138.3942  141.4702  160.5507 C.2     1  UNL1        0.2701
      4 O         137.9933  141.4292  159.1059 O.2     1  UNL1       -0.2707
      5 H         139.7690  142.4007  161.9436 H       1  UNL1        0.1564
      6 C         142.3490  145.8244  156.9940 C.3     1  UNL1        0.0327
      7 C         141.6382  144.9618  157.9943 C.ar    1  UNL1       -0.0026
      8 C         142.1742  143.6006  158.3261 C.ar    1  UNL1        0.0001
      9 C         141.4635  142.7380  159.3264 C.ar    1  UNL1        0.0342
     10 C         140.2167  143.2365  159.9950 C.ar    1  UNL1        0.1342
     11 N         139.6806  144.5975  159.6633 N.ar    1  UNL1       -0.2293
     12 C         140.3914  145.4602  158.6629 C.ar    1  UNL1        0.0960
     13 C         137.6486  139.1193  161.3676 C.3     1  UNL1        0.1950
     14 O         138.3645  138.2270  162.3378 O.3     1  UNL1       -0.3519
     15 C         139.8445  138.0171  162.2123 C.3     1  UNL1        0.1156
     16 C         140.5522  138.4040  160.9477 C.3     1  UNL1        0.0320
     17 C         140.6166  137.4204  163.3515 C.3     1  UNL1        0.0320
     18 O         137.0075  141.2333  162.7350 O.3     1  UNL1       -0.4517
     19 C         137.7829  142.1303  163.6539 C.ar    1  UNL1        0.2312
     20 N         137.7679  143.6151  163.4414 N.ar    1  UNL1       -0.1892
     21 C         138.5432  144.5121  164.3602 C.ar    1  UNL1        0.2029
     22 N         139.3336  143.9243  165.4915 N.ar    1  UNL1       -0.2046
     23 C         139.3486  142.4395  165.7039 C.ar    1  UNL1        0.1715
     24 C         138.5732  141.5425  164.7851 C.ar    1  UNL1        0.1098
     25 C         138.7758  140.1272  165.2390 C.ar    1  UNL1        0.1283
     26 N         139.6764  140.1495  166.4384 N.ar    1  UNL1       -0.1619
     27 N         140.0304  141.5786  166.7257 N.ar    1  UNL1       -0.2111
     28 C         140.9115  142.0619  167.8393 C.ar    1  UNL1        0.0949
     29 C         140.3126  142.7823  169.0108 C.ar    1  UNL1        0.0201
     30 C         141.1937  143.2656  170.1244 C.ar    1  UNL1        0.0016
     31 C         142.6737  143.0286  170.0664 C.ar    1  UNL1        0.0010
     32 C         143.2726  142.3083  168.8949 C.ar    1  UNL1        0.0129
     33 C         142.3915  141.8249  167.7814 C.ar    1  UNL1        0.0753
     34 CL        142.9904  141.1046  166.6099 Cl      1  UNL1       -0.0807
@<TRIPOS>BOND
     1     6     7    1
     2     7     8   ar
     3     8     9   ar
     4     9    10   ar
     5    10     2    1
     6     2     3   am
     7     3     4    2
     8     3     1    1
     9     1    13    1
    10    13    14    1
    11    14    15    1
    12    15    16    1
    13    15    17    1
    14     1    18    1
    15    18    19    1
    16    19    20   ar
    17    20    21   ar
    18    21    22   ar
    19    22    23   ar
    20    23    24   ar
    21    24    25   ar
    22    25    26   ar
    23    26    27   ar
    24    27    28    1
    25    28    29   ar
    26    29    30   ar
    27    30    31   ar
    28    31    32   ar
    29    32    33   ar
    30    33    34    1
    31    10    11   ar
    32    11    12   ar
    33    12     7   ar
    34    24    19   ar
    35    33    28   ar
    36    27    23   ar
    37     2     5    1
@<TRIPOS>MOLECULE
*****
 34 37 0 0 0
SMALL
GASTEIGER

@<TRIPOS>ATOM
      1 C         141.6484  139.1075  158.5744 C.3     1  UNL1        0.2722
      2 N         142.9808  137.0974  157.6078 N.am    1  UNL1       -0.2663
      3 C         141.6924  137.8511  157.7561 C.2     1  UNL1        0.2701
      4 O         140.4481  137.3484  157.0861 O.2     1  UNL1       -0.2707
      5 H         143.7975  137.4273  158.0476 H       1  UNL1        0.1564
      6 C         143.1571  132.0718  154.3348 C.3     1  UNL1        0.0327
      7 C         143.1130  133.3282  155.1531 C.ar    1  UNL1       -0.0026
      8 C         142.8854  134.6514  154.4841 C.ar    1  UNL1        0.0001
      9 C         142.8413  135.9077  155.3024 C.ar    1  UNL1        0.0342
     10 C         143.0249  135.8410  156.7896 C.ar    1  UNL1        0.1342
     11 N         143.2525  134.5179  157.4586 N.ar    1  UNL1       -0.2293
     12 C         143.2966  133.2615  156.6403 C.ar    1  UNL1        0.0960
     13 C         142.8608  139.9860  158.6657 C.3     1  UNL1        0.1950
     14 O         144.0991  139.4866  159.3491 O.3     1  UNL1       -0.3519
     15 C         144.0706  139.1694  160.8150 C.3     1  UNL1        0.1156
     16 C         144.1687  140.2753  161.8237 C.3     1  UNL1        0.0320
     17 C         143.9440  137.7464  161.2721 C.3     1  UNL1        0.0320
     18 O         140.3920  139.4853  159.3015 O.3     1  UNL1       -0.4517
     19 C         140.4731  140.2113  160.6117 C.ar    1  UNL1        0.2312
     20 N         140.5315  141.7099  160.6364 N.ar    1  UNL1       -0.1892
     21 C         140.6125  142.4357  161.9466 C.ar    1  UNL1        0.2029
     22 N         140.6352  141.6629  163.2320 N.ar    1  UNL1       -0.2046
     23 C         140.5768  140.1643  163.2072 C.ar    1  UNL1        0.1715
     24 C         140.4957  139.4384  161.8971 C.ar    1  UNL1        0.1098
     25 C         140.4510  137.9668  162.1844 C.ar    1  UNL1        0.1283
     26 N         140.5045  137.7832  163.6721 N.ar    1  UNL1       -0.1619
     27 N         140.5822  139.1413  164.3043 N.ar    1  UNL1       -0.2111
     28 C         140.6530  139.4264  165.7752 C.ar    1  UNL1        0.0949
     29 C         141.9831  139.4747  166.4668 C.ar    1  UNL1        0.0201
     30 C         142.0538  139.7597  167.9377 C.ar    1  UNL1        0.0016
     31 C         140.7944  139.9966  168.7172 C.ar    1  UNL1        0.0010
     32 C         139.4642  139.9483  168.0256 C.ar    1  UNL1        0.0129
     33 C         139.3935  139.6632  166.5547 C.ar    1  UNL1        0.0753
     34 CL        138.0632  139.6150  165.8632 Cl      1  UNL1       -0.0807
@<TRIPOS>BOND
     1     6     7    1
     2     7     8   ar
     3     8     9   ar
     4     9    10   ar
     5    10     2    1
     6     2     3   am
     7     3     4    2
     8     3     1    1
     9     1    13    1
    10    13    14    1
    11    14    15    1
    12    15    16    1
    13    15    17    1
    14     1    18    1
    15    18    19    1
    16    19    20   ar
    17    20    21   ar
    18    21    22   ar
    19    22    23   ar
    20    23    24   ar
    21    24    25   ar
    22    25    26   ar
    23    26    27   ar
    24    27    28    1
    25    28    29   ar
    26    29    30   ar
    27    30    31   ar
    28    31    32   ar
    29    32    33   ar
    30    33    34    1
    31    10    11   ar
    32    11    12   ar
    33    12     7   ar
    34    24    19   ar
    35    33    28   ar
    36    27    23   ar
    37     2     5    1
@<TRIPOS>MOLECULE
*****
 34 37 0 0 0
SMALL
GASTEIGER

@<TRIPOS>ATOM
      1 C         137.9025  142.5647  164.0949 C.3     1  UNL1        0.2722
      2 N         139.7539  142.2463  165.8896 N.am    1  UNL1       -0.2663
      3 C         138.6185  141.6910  165.0819 C.2     1  UNL1        0.2701
      4 O         138.1991  140.2620  165.2610 O.2     1  UNL1       -0.2707
      5 H         140.0292  143.1842  165.7721 H       1  UNL1        0.1564
      6 C         142.6180  138.7516  169.8373 C.3     1  UNL1        0.0327
      7 C         141.9020  139.6253  168.8504 C.ar    1  UNL1       -0.0026
      8 C         140.6109  140.2865  169.2325 C.ar    1  UNL1        0.0001
      9 C         139.8949  141.1601  168.2456 C.ar    1  UNL1        0.0342
     10 C         140.4699  141.3726  166.8766 C.ar    1  UNL1        0.1342
     11 N         141.7610  140.7115  166.4945 N.ar    1  UNL1       -0.2293
     12 C         142.4770  139.8378  167.4814 C.ar    1  UNL1        0.0960
     13 C         137.8520  144.0489  164.3057 C.3     1  UNL1        0.1950
     14 O         139.1233  144.8436  164.3523 O.3     1  UNL1       -0.3519
     15 C         139.9991  144.9295  163.1374 C.3     1  UNL1        0.1156
     16 C         139.7441  145.9846  162.1022 C.3     1  UNL1        0.0320
     17 C         141.1297  143.9603  162.9579 C.3     1  UNL1        0.0320
     18 O         137.2371  141.9541  162.8973 O.3     1  UNL1       -0.4517
     19 C         137.9932  141.8139  161.6093 C.ar    1  UNL1        0.2312
     20 N         138.2065  143.0108  160.7308 N.ar    1  UNL1       -0.1892
     21 C         138.9626  142.8705  159.4429 C.ar    1  UNL1        0.2029
     22 N         139.5053  141.5334  159.0336 N.ar    1  UNL1       -0.2046
     23 C         139.2920  140.3365  159.9121 C.ar    1  UNL1        0.1715
     24 C         138.5359  140.4768  161.2000 C.ar    1  UNL1        0.1098
     25 C         138.4831  139.1287  161.8557 C.ar    1  UNL1        0.1283
     26 N         139.2065  138.1553  160.9731 N.ar    1  UNL1       -0.1619
     27 N         139.7064  138.9018  159.7719 N.ar    1  UNL1       -0.2111
     28 C         140.4843  138.3163  158.6307 C.ar    1  UNL1        0.0949
     29 C         139.7702  137.8540  157.3953 C.ar    1  UNL1        0.0201
     30 C         140.5481  137.2686  156.2542 C.ar    1  UNL1        0.0016
     31 C         142.0400  137.1454  156.3484 C.ar    1  UNL1        0.0010
     32 C         142.7541  137.6077  157.5839 C.ar    1  UNL1        0.0129
     33 C         141.9762  138.1932  158.7250 C.ar    1  UNL1        0.0753
     34 CL        142.6904  138.6555  159.9604 Cl      1  UNL1       -0.0807
@<TRIPOS>BOND
     1     6     7    1
     2     7     8   ar
     3     8     9   ar
     4     9    10   ar
     5    10     2    1
     6     2     3   am
     7     3     4    2
     8     3     1    1
     9     1    13    1
    10    13    14    1
    11    14    15    1
    12    15    16    1
    13    15    17    1
    14     1    18    1
    15    18    19    1
    16    19    20   ar
    17    20    21   ar
    18    21    22   ar
    19    22    23   ar
    20    23    24   ar
    21    24    25   ar
    22    25    26   ar
    23    26    27   ar
    24    27    28    1
    25    28    29   ar
    26    29    30   ar
    27    30    31   ar
    28    31    32   ar
    29    32    33   ar
    30    33    34    1
    31    10    11   ar
    32    11    12   ar
    33    12     7   ar
    34    24    19   ar
    35    33    28   ar
    36    27    23   ar
    37     2     5    1
@<TRIPOS>MOLECULE
*****
 34 37 0 0 0
SMALL
GASTEIGER

@<TRIPOS>ATOM
      1 C         142.9648  138.3781  156.7620 C.3     1  UNL1        0.2722
      2 N         142.7995  135.7914  156.9413 N.am    1  UNL1       -0.2663
      3 C         143.4875  137.0157  156.4143 C.2     1  UNL1        0.2701
      4 O         144.6982  136.8778  155.5396 O.2     1  UNL1       -0.2707
      5 H         142.0049  135.8820  157.5154 H       1  UNL1        0.1564
      6 C         144.8903  130.3422  155.5505 C.3     1  UNL1        0.0327
      7 C         144.3676  131.7045  155.8982 C.ar    1  UNL1       -0.0026
      8 C         143.4378  132.4135  154.9585 C.ar    1  UNL1        0.0001
      9 C         142.9152  133.7757  155.3062 C.ar    1  UNL1        0.0342
     10 C         143.3222  134.4292  156.5936 C.ar    1  UNL1        0.1342
     11 N         144.2519  133.7203  157.5333 N.ar    1  UNL1       -0.2293
     12 C         144.7747  132.3579  157.1856 C.ar    1  UNL1        0.0960
     13 C         143.6886  139.6029  156.2869 C.3     1  UNL1        0.1950
     14 O         145.0627  139.9100  156.8041 O.3     1  UNL1       -0.3519
     15 C         145.5798  141.3177  156.7697 C.3     1  UNL1        0.1156
     16 C         146.7020  141.6820  155.8435 C.3     1  UNL1        0.0320
     17 C         144.9746  142.3609  157.6615 C.3     1  UNL1        0.0320
     18 O         141.7182  138.5155  157.5849 O.3     1  UNL1       -0.4517
     19 C         141.7834  138.3647  159.0760 C.ar    1  UNL1        0.2312
     20 N         143.0584  137.9212  159.7299 N.ar    1  UNL1       -0.1892
     21 C         143.1235  137.7705  161.2209 C.ar    1  UNL1        0.2029
     22 N         141.9136  138.0631  162.0579 N.ar    1  UNL1       -0.2046
     23 C         140.6386  138.5066  161.4039 C.ar    1  UNL1        0.1715
     24 C         140.5735  138.6573  159.9130 C.ar    1  UNL1        0.1098
     25 C         139.1889  139.1082  159.5526 C.ar    1  UNL1        0.1283
     26 N         138.3983  139.2360  160.8209 N.ar    1  UNL1       -0.1619
     27 N         139.2943  138.8642  161.9651 N.ar    1  UNL1       -0.2111
     28 C         138.9129  138.8521  163.4157 C.ar    1  UNL1        0.0949
     29 C         138.8864  137.5579  164.1735 C.ar    1  UNL1        0.0201
     30 C         138.5050  137.5458  165.6242 C.ar    1  UNL1        0.0016
     31 C         138.1502  138.8280  166.3171 C.ar    1  UNL1        0.0010
     32 C         138.1767  140.1222  165.5593 C.ar    1  UNL1        0.0129
     33 C         138.5581  140.1343  164.1086 C.ar    1  UNL1        0.0753
     34 CL        138.5846  141.4285  163.3509 Cl      1  UNL1       -0.0807
@<TRIPOS>BOND
     1     6     7    1
     2     7     8   ar
     3     8     9   ar
     4     9    10   ar
     5    10     2    1
     6     2     3   am
     7     3     4    2
     8     3     1    1
     9     1    13    1
    10    13    14    1
    11    14    15    1
    12    15    16    1
    13    15    17    1
    14     1    18    1
    15    18    19    1
    16    19    20   ar
    17    20    21   ar
    18    21    22   ar
    19    22    23   ar
    20    23    24   ar
    21    24    25   ar
    22    25    26   ar
    23    26    27   ar
    24    27    28    1
    25    28    29   ar
    26    29    30   ar
    27    30    31   ar
    28    31    32   ar
    29    32    33   ar
    30    33    34    1
    31    10    11   ar
    32    11    12   ar
    33    12     7   ar
    34    24    19   ar
    35    33    28   ar
    36    27    23   ar
    37     2     5    1
@<TRIPOS>MOLECULE
*****
 34 37 0 0 0
SMALL
GASTEIGER

@<TRIPOS>ATOM
      1 C         137.7106  140.1571  161.4859 C.3     1  UNL1        0.2722
      2 N         138.3700  142.0853  159.8742 N.am    1  UNL1       -0.2663
      3 C         138.0827  140.6325  160.1127 C.2     1  UNL1        0.2701
      4 O         138.1674  139.6551  158.9780 O.2     1  UNL1       -0.2707
      5 H         138.3144  142.7268  160.6189 H       1  UNL1        0.1564
      6 C         139.8582  143.9868  154.3815 C.3     1  UNL1        0.0327
      7 C         139.4862  143.5114  155.7547 C.ar    1  UNL1       -0.0026
      8 C         140.5443  143.3538  156.8061 C.ar    1  UNL1        0.0001
      9 C         140.1723  142.8784  158.1793 C.ar    1  UNL1        0.0342
     10 C         138.7421  142.5606  158.5010 C.ar    1  UNL1        0.1342
     11 N         137.6839  142.7182  157.4496 N.ar    1  UNL1       -0.2293
     12 C         138.0560  143.1936  156.0764 C.ar    1  UNL1        0.0960
     13 C         137.8859  138.7134  161.8529 C.3     1  UNL1        0.1950
     14 O         139.2327  138.0653  161.7253 O.3     1  UNL1       -0.3519
     15 C         140.3198  138.3958  162.7046 C.3     1  UNL1        0.1156
     16 C         140.5745  137.4931  163.8753 C.3     1  UNL1        0.0320
     17 C         141.1522  139.6288  162.5133 C.3     1  UNL1        0.0320
     18 O         137.1631  141.1256  162.4920 O.3     1  UNL1       -0.4517
     19 C         138.0984  141.9668  163.3093 C.ar    1  UNL1        0.2312
     20 N         138.5042  143.3262  162.8223 N.ar    1  UNL1       -0.1892
     21 C         139.4394  144.1673  163.6395 C.ar    1  UNL1        0.2029
     22 N         139.9687  143.6490  164.9438 N.ar    1  UNL1       -0.2046
     23 C         139.5629  142.2896  165.4309 C.ar    1  UNL1        0.1715
     24 C         138.6277  141.4485  164.6136 C.ar    1  UNL1        0.1098
     25 C         138.4064  140.1575  165.3447 C.ar    1  UNL1        0.1283
     26 N         139.2049  140.2007  166.6137 N.ar    1  UNL1       -0.1619
     27 N         139.9196  141.5185  166.6670 N.ar    1  UNL1       -0.2111
     28 C         140.8310  141.9834  167.7638 C.ar    1  UNL1        0.0949
     29 C         140.3288  142.9457  168.7990 C.ar    1  UNL1        0.0201
     30 C         141.2402  143.4107  169.8959 C.ar    1  UNL1        0.0016
     31 C         142.6540  142.9134  169.9575 C.ar    1  UNL1        0.0010
     32 C         143.1563  141.9511  168.9223 C.ar    1  UNL1        0.0129
     33 C         142.2449  141.4861  167.8255 C.ar    1  UNL1        0.0753
     34 CL        142.7473  140.5239  166.7903 Cl      1  UNL1       -0.0807
@<TRIPOS>BOND
     1     6     7    1
     2     7     8   ar
     3     8     9   ar
     4     9    10   ar
     5    10     2    1
     6     2     3   am
     7     3     4    2
     8     3     1    1
     9     1    13    1
    10    13    14    1
    11    14    15    1
    12    15    16    1
    13    15    17    1
    14     1    18    1
    15    18    19    1
    16    19    20   ar
    17    20    21   ar
    18    21    22   ar
    19    22    23   ar
    20    23    24   ar
    21    24    25   ar
    22    25    26   ar
    23    26    27   ar
    24    27    28    1
    25    28    29   ar
    26    29    30   ar
    27    30    31   ar
    28    31    32   ar
    29    32    33   ar
    30    33    34    1
    31    10    11   ar
    32    11    12   ar
    33    12     7   ar
    34    24    19   ar
    35    33    28   ar
    36    27    23   ar
    37     2     5    1
@<TRIPOS>MOLECULE
*****
 34 37 0 0 0
SMALL
GASTEIGER

@<TRIPOS>ATOM
      1 C         143.2841  141.9318  160.6303 C.3     1  UNL1        0.2722
      2 N         142.7580  144.0635  159.2413 N.am    1  UNL1       -0.2663
      3 C         142.5362  142.6061  159.5186 C.2     1  UNL1        0.2701
      4 O         141.5665  141.8231  158.6841 O.2     1  UNL1       -0.2707
      5 H         143.3945  144.5774  159.7891 H       1  UNL1        0.1564
      6 C         139.7664  146.7608  154.7945 C.3     1  UNL1        0.0327
      7 C         140.5143  146.0865  155.9062 C.ar    1  UNL1       -0.0026
      8 C         141.7167  145.2440  155.5983 C.ar    1  UNL1        0.0001
      9 C         142.4645  144.5697  156.7100 C.ar    1  UNL1        0.0342
     10 C         142.0101  144.7378  158.1296 C.ar    1  UNL1        0.1342
     11 N         140.8079  145.5802  158.4376 N.ar    1  UNL1       -0.2293
     12 C         140.0599  146.2546  157.3258 C.ar    1  UNL1        0.0960
     13 C         144.5316  142.5561  161.1817 C.3     1  UNL1        0.1950
     14 O         144.4668  143.8975  161.8499 O.3     1  UNL1       -0.3519
     15 C         143.9965  144.0061  163.2701 C.3     1  UNL1        0.1156
     16 C         144.6300  143.1624  164.3365 C.3     1  UNL1        0.0320
     17 C         142.8927  144.9581  163.6241 C.3     1  UNL1        0.0320
     18 O         142.7846  140.6332  161.1907 O.3     1  UNL1       -0.4517
     19 C         142.8278  140.3886  162.6700 C.ar    1  UNL1        0.2312
     20 N         143.9124  139.5353  163.2578 N.ar    1  UNL1       -0.1892
     21 C         143.9555  139.2908  164.7371 C.ar    1  UNL1        0.2029
     22 N         142.9141  139.8995  165.6286 N.ar    1  UNL1       -0.2046
     23 C         141.8295  140.7528  165.0408 C.ar    1  UNL1        0.1715
     24 C         141.7863  140.9973  163.5616 C.ar    1  UNL1        0.1098
     25 C         140.6055  141.8757  163.2712 C.ar    1  UNL1        0.1283
     26 N         139.9190  142.1740  164.5710 N.ar    1  UNL1       -0.1619
     27 N         140.6754  141.4800  165.6647 N.ar    1  UNL1       -0.2111
     28 C         140.3372  141.5083  167.1258 C.ar    1  UNL1        0.0949
     29 C         140.7288  142.6891  167.9637 C.ar    1  UNL1        0.0201
     30 C         140.3906  142.7174  169.4247 C.ar    1  UNL1        0.0016
     31 C         139.6606  141.5647  170.0480 C.ar    1  UNL1        0.0010
     32 C         139.2690  140.3838  169.2102 C.ar    1  UNL1        0.0129
     33 C         139.6072  140.3556  167.7491 C.ar    1  UNL1        0.0753
     34 CL        139.2155  139.1746  166.9113 Cl      1  UNL1       -0.0807
@<TRIPOS>BOND
     1     6     7    1
     2     7     8   ar
     3     8     9   ar
     4     9    10   ar
     5    10     2    1
     6     2     3   am
     7     3     4    2
     8     3     1    1
     9     1    13    1
    10    13    14    1
    11    14    15    1
    12    15    16    1
    13    15    17    1
    14     1    18    1
    15    18    19    1
    16    19    20   ar
    17    20    21   ar
    18    21    22   ar
    19    22    23   ar
    20    23    24   ar
    21    24    25   ar
    22    25    26   ar
    23    26    27   ar
    24    27    28    1
    25    28    29   ar
    26    29    30   ar
    27    30    31   ar
    28    31    32   ar
    29    32    33   ar
    30    33    34    1
    31    10    11   ar
    32    11    12   ar
    33    12     7   ar
    34    24    19   ar
    35    33    28   ar
    36    27    23   ar
    37     2     5    1
@<TRIPOS>MOLECULE
*****
 34 37 0 0 0
SMALL
GASTEIGER

@<TRIPOS>ATOM
      1 C         141.0329  144.5842  159.9207 C.3     1  UNL1        0.2722
      2 N         139.9528  145.4131  157.7079 N.am    1  UNL1       -0.2663
      3 C         141.1181  145.3798  158.6518 C.2     1  UNL1        0.2701
      4 O         142.3685  146.1418  158.3269 O.2     1  UNL1       -0.2707
      5 H         139.1321  144.9129  157.9211 H       1  UNL1        0.1564
      6 C         140.2934  148.5949  152.6325 C.3     1  UNL1        0.0327
      7 C         140.2083  147.7994  153.9013 C.ar    1  UNL1       -0.0026
      8 C         139.3230  148.2638  155.0197 C.ar    1  UNL1        0.0001
      9 C         139.2378  147.4684  156.2885 C.ar    1  UNL1        0.0342
     10 C         140.0379  146.2085  156.4391 C.ar    1  UNL1        0.1342
     11 N         140.9232  145.7442  155.3208 N.ar    1  UNL1       -0.2293
     12 C         141.0083  146.5396  154.0518 C.ar    1  UNL1        0.0960
     13 C         141.0693  143.0856  159.8702 C.3     1  UNL1        0.1950
     14 O         139.9830  142.3324  159.1613 O.3     1  UNL1       -0.3519
     15 C         139.1321  141.3549  159.9167 C.3     1  UNL1        0.1156
     16 C         138.1044  140.5379  159.1913 C.3     1  UNL1        0.0320
     17 C         139.3090  141.1945  161.3976 C.3     1  UNL1        0.0320
     18 O         140.9113  145.2875  161.2400 O.3     1  UNL1       -0.4517
     19 C         140.0773  144.6900  162.3344 C.ar    1  UNL1        0.2312
     20 N         138.5806  144.7411  162.2497 N.ar    1  UNL1       -0.1892
     21 C         137.7467  144.1435  163.3440 C.ar    1  UNL1        0.2029
     22 N         138.4095  143.4949  164.5230 N.ar    1  UNL1       -0.2046
     23 C         139.9062  143.4438  164.6077 C.ar    1  UNL1        0.1715
     24 C         140.7401  144.0413  163.5133 C.ar    1  UNL1        0.1098
     25 C         142.1837  143.8418  163.8690 C.ar    1  UNL1        0.1283
     26 N         142.2419  143.1209  165.1831 N.ar    1  UNL1       -0.1619
     27 N         140.8343  142.8750  165.6396 N.ar    1  UNL1       -0.2111
     28 C         140.4265  142.1819  166.9058 C.ar    1  UNL1        0.0949
     29 C         140.5440  142.8928  168.2214 C.ar    1  UNL1        0.0201
     30 C         140.1362  142.1997  169.4876 C.ar    1  UNL1        0.0016
     31 C         139.6108  140.7956  169.4382 C.ar    1  UNL1        0.0010
     32 C         139.4932  140.0846  168.1227 C.ar    1  UNL1        0.0129
     33 C         139.9011  140.7778  166.8565 C.ar    1  UNL1        0.0753
     34 CL        139.7835  140.0668  165.5410 Cl      1  UNL1       -0.0807
@<TRIPOS>BOND
     1     6     7    1
     2     7     8   ar
     3     8     9   ar
     4     9    10   ar
     5    10     2    1
     6     2     3   am
     7     3     4    2
     8     3     1    1
     9     1    13    1
    10    13    14    1
    11    14    15    1
    12    15    16    1
    13    15    17    1
    14     1    18    1
    15    18    19    1
    16    19    20   ar
    17    20    21   ar
    18    21    22   ar
    19    22    23   ar
    20    23    24   ar
    21    24    25   ar
    22    25    26   ar
    23    26    27   ar
    24    27    28    1
    25    28    29   ar
    26    29    30   ar
    27    30    31   ar
    28    31    32   ar
    29    32    33   ar
    30    33    34    1
    31    10    11   ar
    32    11    12   ar
    33    12     7   ar
    34    24    19   ar
    35    33    28   ar
    36    27    23   ar
    37     2     5    1
@<TRIPOS>MOLECULE
*****
 34 37 0 0 0
SMALL
GASTEIGER

@<TRIPOS>ATOM
      1 C         144.2757  141.4462  158.3350 C.3     1  UNL1        0.2722
      2 N         146.1136  142.6612  156.9580 N.am    1  UNL1       -0.2663
      3 C         145.2792  141.4426  157.2199 C.2     1  UNL1        0.2701
      4 O         145.4482  140.2204  156.3670 O.2     1  UNL1       -0.2707
      5 H         146.0027  143.4634  157.5178 H       1  UNL1        0.1564
      6 C         150.1273  142.6470  152.4982 C.3     1  UNL1        0.0327
      7 C         149.1239  142.6505  153.6132 C.ar    1  UNL1       -0.0026
      8 C         147.8165  143.3660  153.4433 C.ar    1  UNL1        0.0001
      9 C         146.8131  143.3695  154.5582 C.ar    1  UNL1        0.0342
     10 C         147.1170  142.6577  155.8431 C.ar    1  UNL1        0.1342
     11 N         148.4244  141.9423  156.0130 N.ar    1  UNL1       -0.2293
     12 C         149.4279  141.9387  154.8980 C.ar    1  UNL1        0.0960
     13 C         144.2037  142.6126  159.2753 C.3     1  UNL1        0.1950
     14 O         145.1026  142.6654  160.4750 O.3     1  UNL1       -0.3519
     15 C         144.5323  142.4708  161.8487 C.3     1  UNL1        0.1156
     16 C         143.2926  143.2096  162.2576 C.3     1  UNL1        0.0320
     17 C         145.2018  141.5375  162.8134 C.3     1  UNL1        0.0320
     18 O         143.3444  140.2834  158.5095 O.3     1  UNL1       -0.4517
     19 C         143.1342  139.6885  159.8704 C.ar    1  UNL1        0.2312
     20 N         144.1228  138.7028  160.4189 N.ar    1  UNL1       -0.1892
     21 C         143.9126  138.1080  161.7797 C.ar    1  UNL1        0.2029
     22 N         142.7138  138.4989  162.5921 N.ar    1  UNL1       -0.2046
     23 C         141.7252  139.4847  162.0436 C.ar    1  UNL1        0.1715
     24 C         141.9354  140.0795  160.6828 C.ar    1  UNL1        0.1098
     25 C         140.7992  141.0193  160.4071 C.ar    1  UNL1        0.1283
     26 N         139.8868  141.0053  161.5976 N.ar    1  UNL1       -0.1619
     27 N         140.4591  140.0568  162.6091 N.ar    1  UNL1       -0.2111
     28 C         139.8689  139.7367  163.9504 C.ar    1  UNL1        0.0949
     29 C         139.1271  138.4493  164.1555 C.ar    1  UNL1        0.0201
     30 C         138.5369  138.1292  165.4969 C.ar    1  UNL1        0.0016
     31 C         138.6886  139.0965  166.6332 C.ar    1  UNL1        0.0010
     32 C         139.4305  140.3840  166.4281 C.ar    1  UNL1        0.0129
     33 C         140.0206  140.7041  165.0867 C.ar    1  UNL1        0.0753
     34 CL        140.7624  141.9916  164.8817 Cl      1  UNL1       -0.0807
@<TRIPOS>BOND
     1     6     7    1
     2     7     8   ar
     3     8     9   ar
     4     9    10   ar
     5    10     2    1
     6     2     3   am
     7     3     4    2
     8     3     1    1
     9     1    13    1
    10    13    14    1
    11    14    15    1
    12    15    16    1
    13    15    17    1
    14     1    18    1
    15    18    19    1
    16    19    20   ar
    17    20    21   ar
    18    21    22   ar
    19    22    23   ar
    20    23    24   ar
    21    24    25   ar
    22    25    26   ar
    23    26    27   ar
    24    27    28    1
    25    28    29   ar
    26    29    30   ar
    27    30    31   ar
    28    31    32   ar
    29    32    33   ar
    30    33    34    1
    31    10    11   ar
    32    11    12   ar
    33    12     7   ar
    34    24    19   ar
    35    33    28   ar
    36    27    23   ar
    37     2     5    1
@<TRIPOS>MOLECULE
*****
 34 37 0 0 0
SMALL
GASTEIGER

@<TRIPOS>ATOM
      1 C         142.2458  137.8042  161.2730 C.3     1  UNL1        0.2722
      2 N         140.2274  138.3249  159.7222 N.am    1  UNL1       -0.2663
      3 C         141.7075  138.1967  159.9290 C.2     1  UNL1        0.2701
      4 O         142.6493  138.4609  158.7918 O.2     1  UNL1       -0.2707
      5 H         139.6092  138.1515  160.4686 H       1  UNL1        0.1564
      6 C         138.0740  139.8946  154.3465 C.3     1  UNL1        0.0327
      7 C         138.6124  139.5022  155.6904 C.ar    1  UNL1       -0.0026
      8 C         138.4901  140.4440  156.8515 C.ar    1  UNL1        0.0001
      9 C         139.0284  140.0516  158.1954 C.ar    1  UNL1        0.0342
     10 C         139.6890  138.7173  158.3783 C.ar    1  UNL1        0.1342
     11 N         139.8113  137.7756  157.2173 N.ar    1  UNL1       -0.2293
     12 C         139.2730  138.1680  155.8733 C.ar    1  UNL1        0.0960
     13 C         143.7041  137.9796  161.5772 C.3     1  UNL1        0.1950
     14 O         144.3233  139.3447  161.5202 O.3     1  UNL1       -0.3519
     15 C         144.1144  140.3107  162.6486 C.3     1  UNL1        0.1156
     16 C         145.1052  140.3763  163.7728 C.3     1  UNL1        0.0320
     17 C         142.9147  141.2110  162.6527 C.3     1  UNL1        0.0320
     18 O         141.3258  137.2364  162.3127 O.3     1  UNL1       -0.4517
     19 C         140.5459  138.1548  163.2062 C.ar    1  UNL1        0.2312
     20 N         139.2060  138.6676  162.7687 N.ar    1  UNL1       -0.1892
     21 C         138.4262  139.5860  163.6622 C.ar    1  UNL1        0.2029
     22 N         138.9864  139.9917  164.9932 N.ar    1  UNL1       -0.2046
     23 C         140.3263  139.4789  165.4308 C.ar    1  UNL1        0.1715
     24 C         141.1061  138.5604  164.5373 C.ar    1  UNL1        0.1098
     25 C         142.3905  138.2177  165.2323 C.ar    1  UNL1        0.1283
     26 N         142.4045  138.9244  166.5553 N.ar    1  UNL1       -0.1619
     27 N         141.1287  139.7038  166.6780 N.ar    1  UNL1       -0.2111
     28 C         140.7261  140.5581  167.8433 C.ar    1  UNL1        0.0949
     29 C         139.6402  140.0986  168.7705 C.ar    1  UNL1        0.0201
     30 C         139.2376  140.9530  169.9358 C.ar    1  UNL1        0.0016
     31 C         139.9208  142.2669  170.1739 C.ar    1  UNL1        0.0010
     32 C         141.0067  142.7265  169.2467 C.ar    1  UNL1        0.0129
     33 C         141.4093  141.8721  168.0814 C.ar    1  UNL1        0.0753
     34 CL        142.4952  142.3317  167.1543 Cl      1  UNL1       -0.0807
@<TRIPOS>BOND
     1     6     7    1
     2     7     8   ar
     3     8     9   ar
     4     9    10   ar
     5    10     2    1
     6     2     3   am
     7     3     4    2
     8     3     1    1
     9     1    13    1
    10    13    14    1
    11    14    15    1
    12    15    16    1
    13    15    17    1
    14     1    18    1
    15    18    19    1
    16    19    20   ar
    17    20    21   ar
    18    21    22   ar
    19    22    23   ar
    20    23    24   ar
    21    24    25   ar
    22    25    26   ar
    23    26    27   ar
    24    27    28    1
    25    28    29   ar
    26    29    30   ar
    27    30    31   ar
    28    31    32   ar
    29    32    33   ar
    30    33    34    1
    31    10    11   ar
    32    11    12   ar
    33    12     7   ar
    34    24    19   ar
    35    33    28   ar
    36    27    23   ar
    37     2     5    1
