@<TRIPOS>MOLECULE
*****
 35 40 0 0 0
SMALL
GASTEIGER

@<TRIPOS>ATOM
      1 C         143.8797  141.1843  162.4350 C.ar    1  UNL1        0.0944
      2 C         144.1508  140.6940  163.8264 C.ar    1  UNL1        0.0977
      3 N         143.1424  141.3205  164.7432 N.ar    1  UNL1       -0.2840
      4 C         142.9229  141.2054  166.2226 C.ar    1  UNL1        0.1004
      5 C         141.8091  141.9678  166.8771 C.ar    1  UNL1        0.0971
      6 N         140.9149  142.8452  166.0523 N.ar    1  UNL1       -0.2264
      7 C         141.1344  142.9604  164.5729 C.ar    1  UNL1        0.1666
      8 C         142.2481  142.1980  163.9184 C.ar    1  UNL1        0.1797
      9 N         142.7039  142.1138  162.4918 N.ar    1  UNL1       -0.2268
     10 C         141.5896  141.8526  168.3566 C.2     1  UNL1        0.0081
     11 C         142.5067  142.5620  169.3083 C.2     1  UNL1       -0.0020
     12 C         142.2873  142.4469  170.7877 C.2     1  UNL1        0.0010
     13 C         141.1507  141.6224  171.3153 C.2     1  UNL1        0.0172
     14 C         140.2336  140.9131  170.3636 C.2     1  UNL1        0.0900
     15 N         139.0380  140.0352  170.5879 N.2     1  UNL1       -0.1519
     16 N         138.5187  139.6079  169.2471 N.2     1  UNL1       -0.1507
     17 C         139.3932  140.2216  168.1942 C.2     1  UNL1        0.1058
     18 C         140.4530  141.0282  168.8842 C.3     1  UNL1        0.1088
     19 N         140.2402  143.8379  163.7481 N.pl3   1  UNL1       -0.2857
     20 C         138.7694  143.5521  163.6747 C.3     1  UNL1        0.1243
     21 C         137.8752  144.4295  162.8499 C.3     1  UNL1        0.1636
     22 O         138.4516  145.5929  162.0985 O.3     1  UNL1       -0.3501
     23 C         139.9222  145.8786  162.1719 C.3     1  UNL1        0.1636
     24 C         140.8166  145.0011  162.9968 C.3     1  UNL1        0.1243
     25 C         144.6495  140.8106  161.2029 C.3     1  UNL1        0.1203
     26 N         142.7893  138.1116  158.1198 N.3     1  UNL1       -0.1565
     27 C         143.2810  139.4729  157.7261 C.3     1  UNL1        0.1128
     28 C         143.9011  140.3726  158.7539 C.3     1  UNL1        0.0918
     29 N         144.0294  139.9109  160.1753 N.3     1  UNL1       -0.2651
     30 C         143.5376  138.5496  160.5689 C.3     1  UNL1        0.0918
     31 C         142.9176  137.6500  159.5412 C.3     1  UNL1        0.1128
     32 C         141.5491  136.3123  156.0646 C.3     1  UNL1        0.1960
     33 S         142.1692  137.2119  157.0922 S.O2    1  UNL1        0.0457
     34 O         143.5342  136.7641  156.6607 O.2     1  UNL1       -0.1572
     35 O         140.8042  137.6598  157.5237 O.2     1  UNL1       -0.1572
@<TRIPOS>BOND
     1    32    33    1
     2    33    34    2
     3    33    35    2
     4    33    26    1
     5    26    27    1
     6    27    28    1
     7    28    29    1
     8    29    25    1
     9    25     1    1
    10     1     2   ar
    11     2     3   ar
    12     3     4   ar
    13     4     5   ar
    14     5    10    1
    15    10    11    2
    16    11    12    1
    17    12    13    2
    18    13    14    1
    19    14    15    2
    20    15    16    1
    21    16    17    2
    22    17    18    1
    23     5     6   ar
    24     6     7   ar
    25     7    19    1
    26    19    20    1
    27    20    21    1
    28    21    22    1
    29    22    23    1
    30    23    24    1
    31     7     8   ar
    32     8     9   ar
    33    29    30    1
    34    30    31    1
    35    31    26    1
    36     9     1   ar
    37     8     3   ar
    38    18    10    1
    39    24    19    1
    40    18    14    1
@<TRIPOS>MOLECULE
*****
 35 40 0 0 0
SMALL
GASTEIGER

@<TRIPOS>ATOM
      1 C         141.5255  139.1154  162.1586 C.ar    1  UNL1        0.0944
      2 C         142.0487  138.7403  163.5134 C.ar    1  UNL1        0.0977
      3 N         141.7596  139.8740  164.4521 N.ar    1  UNL1       -0.2840
      4 C         142.0448  140.0657  165.9122 C.ar    1  UNL1        0.1004
      5 C         141.6281  141.3333  166.5976 C.ar    1  UNL1        0.0971
      6 N         140.9263  142.4090  165.8230 N.ar    1  UNL1       -0.2264
      7 C         140.6411  142.2173  164.3629 C.ar    1  UNL1        0.1666
      8 C         141.0577  140.9498  163.6774 C.ar    1  UNL1        0.1797
      9 N         140.9130  140.4810  162.2600 N.ar    1  UNL1       -0.2268
     10 C         141.9133  141.5251  168.0578 C.2     1  UNL1        0.0081
     11 C         143.1563  142.2443  168.4910 C.2     1  UNL1       -0.0020
     12 C         143.4415  142.4360  169.9511 C.2     1  UNL1        0.0010
     13 C         142.4837  141.9086  170.9780 C.2     1  UNL1        0.0172
     14 C         141.2407  141.1894  170.5447 C.2     1  UNL1        0.0900
     15 N         140.1203  140.5640  171.3218 N.2     1  UNL1       -0.1519
     16 N         139.1427  139.9859  170.3420 N.2     1  UNL1       -0.1507
     17 C         139.6589  140.2538  168.9593 C.2     1  UNL1        0.1058
     18 C         140.9555  140.9976  169.0846 C.3     1  UNL1        0.1088
     19 N         139.9392  143.2931  163.5882 N.pl3   1  UNL1       -0.2857
     20 C         138.4415  143.3759  163.6078 C.3     1  UNL1        0.1243
     21 C         137.7397  144.4516  162.8332 C.3     1  UNL1        0.1636
     22 O         138.5354  145.4446  162.0389 O.3     1  UNL1       -0.3501
     23 C         140.0330  145.3619  162.0193 C.3     1  UNL1        0.1636
     24 C         140.7349  144.2861  162.7940 C.3     1  UNL1        0.1243
     25 C         141.6014  138.2730  160.9199 C.3     1  UNL1        0.1203
     26 N         143.9461  139.7135  157.3593 N.3     1  UNL1       -0.1565
     27 C         144.0645  140.4266  158.6737 C.3     1  UNL1        0.1128
     28 C         143.2829  139.9463  159.8605 C.3     1  UNL1        0.0918
     29 N         142.3829  138.7531  159.7330 N.3     1  UNL1       -0.2651
     30 C         142.2646  138.0400  158.4186 C.3     1  UNL1        0.0918
     31 C         143.0462  138.5202  157.2319 C.3     1  UNL1        0.1128
     32 C         145.5092  140.6738  154.9857 C.3     1  UNL1        0.1960
     33 S         144.7277  140.1936  156.1725 S.O2    1  UNL1        0.0457
     34 O         145.0588  138.7746  155.8165 O.2     1  UNL1       -0.1572
     35 O         144.3965  141.6126  156.5285 O.2     1  UNL1       -0.1572
@<TRIPOS>BOND
     1    32    33    1
     2    33    34    2
     3    33    35    2
     4    33    26    1
     5    26    27    1
     6    27    28    1
     7    28    29    1
     8    29    25    1
     9    25     1    1
    10     1     2   ar
    11     2     3   ar
    12     3     4   ar
    13     4     5   ar
    14     5    10    1
    15    10    11    2
    16    11    12    1
    17    12    13    2
    18    13    14    1
    19    14    15    2
    20    15    16    1
    21    16    17    2
    22    17    18    1
    23     5     6   ar
    24     6     7   ar
    25     7    19    1
    26    19    20    1
    27    20    21    1
    28    21    22    1
    29    22    23    1
    30    23    24    1
    31     7     8   ar
    32     8     9   ar
    33    29    30    1
    34    30    31    1
    35    31    26    1
    36     9     1   ar
    37     8     3   ar
    38    18    10    1
    39    24    19    1
    40    18    14    1
@<TRIPOS>MOLECULE
*****
 35 40 0 0 0
SMALL
GASTEIGER

@<TRIPOS>ATOM
      1 C         143.0194  142.9493  162.4019 C.ar    1  UNL1        0.0944
      2 C         143.5255  143.1343  163.8018 C.ar    1  UNL1        0.0977
      3 N         142.7104  142.2607  164.7086 N.ar    1  UNL1       -0.2840
      4 C         142.7572  142.0317  166.1903 C.ar    1  UNL1        0.1004
      5 C         141.7942  141.0777  166.8325 C.ar    1  UNL1        0.0971
      6 N         140.7843  140.3528  165.9932 N.ar    1  UNL1       -0.2264
      7 C         140.7375  140.5818  164.5115 C.ar    1  UNL1        0.1666
      8 C         141.7005  141.5358  163.8692 C.ar    1  UNL1        0.1797
      9 N         141.8915  141.9613  162.4436 N.ar    1  UNL1       -0.2268
     10 C         141.8410  140.8487  168.3143 C.2     1  UNL1        0.0081
     11 C         142.5533  139.6493  168.8656 C.2     1  UNL1       -0.0020
     12 C         142.6002  139.4202  170.3473 C.2     1  UNL1        0.0010
     13 C         141.9348  140.3906  171.2776 C.2     1  UNL1        0.0172
     14 C         141.2225  141.5901  170.7263 C.2     1  UNL1        0.0900
     15 N         140.4804  142.7108  171.3922 N.2     1  UNL1       -0.1519
     16 N         139.9749  143.6324  170.3221 N.2     1  UNL1       -0.1507
     17 C         140.4046  143.0813  168.9948 C.2     1  UNL1        0.1058
     18 C         141.1756  141.8191  169.2446 C.3     1  UNL1        0.1088
     19 N         139.7276  139.8568  163.6721 N.pl3   1  UNL1       -0.2857
     20 C         139.7103  138.3570  163.6480 C.3     1  UNL1        0.1243
     21 C         138.7004  137.6321  162.8087 C.3     1  UNL1        0.1636
     22 O         137.7078  138.4068  161.9934 O.3     1  UNL1       -0.3501
     23 C         137.7251  139.9065  162.0175 C.3     1  UNL1        0.1636
     24 C         138.7350  140.6315  162.8569 C.3     1  UNL1        0.1243
     25 C         143.5483  143.6323  161.1757 C.3     1  UNL1        0.1203
     26 N         140.7363  144.8067  157.8645 N.3     1  UNL1       -0.1565
     27 C         141.9770  144.0237  157.5523 C.3     1  UNL1        0.1128
     28 C         142.9144  143.6322  158.6561 C.3     1  UNL1        0.0918
     29 N         142.6110  144.0238  160.0720 N.3     1  UNL1       -0.2651
     30 C         141.3701  144.8068  160.3841 C.3     1  UNL1        0.0918
     31 C         140.4329  145.1982  159.2804 C.3     1  UNL1        0.1128
     32 C         138.8616  145.5895  155.6572 C.3     1  UNL1        0.1960
     33 S         139.7989  145.1982  156.7608 S.O2    1  UNL1        0.0457
     34 O         140.2086  146.6322  156.9216 O.2     1  UNL1       -0.1572
     35 O         139.3893  143.7642  156.6001 O.2     1  UNL1       -0.1572
@<TRIPOS>BOND
     1    32    33    1
     2    33    34    2
     3    33    35    2
     4    33    26    1
     5    26    27    1
     6    27    28    1
     7    28    29    1
     8    29    25    1
     9    25     1    1
    10     1     2   ar
    11     2     3   ar
    12     3     4   ar
    13     4     5   ar
    14     5    10    1
    15    10    11    2
    16    11    12    1
    17    12    13    2
    18    13    14    1
    19    14    15    2
    20    15    16    1
    21    16    17    2
    22    17    18    1
    23     5     6   ar
    24     6     7   ar
    25     7    19    1
    26    19    20    1
    27    20    21    1
    28    21    22    1
    29    22    23    1
    30    23    24    1
    31     7     8   ar
    32     8     9   ar
    33    29    30    1
    34    30    31    1
    35    31    26    1
    36     9     1   ar
    37     8     3   ar
    38    18    10    1
    39    24    19    1
    40    18    14    1
@<TRIPOS>MOLECULE
*****
 35 40 0 0 0
SMALL
GASTEIGER

@<TRIPOS>ATOM
      1 C         142.7372  142.9093  161.6428 C.ar    1  UNL1        0.0944
      2 C         143.1223  143.4032  163.0058 C.ar    1  UNL1        0.0977
      3 N         142.2668  142.6951  164.0141 N.ar    1  UNL1       -0.2840
      4 C         142.2018  142.7781  165.5104 C.ar    1  UNL1        0.1004
      5 C         141.2230  141.9297  166.2669 C.ar    1  UNL1        0.0971
      6 N         140.3093  140.9982  165.5271 N.ar    1  UNL1       -0.2264
      7 C         140.3743  140.9151  164.0308 C.ar    1  UNL1        0.1666
      8 C         141.3530  141.7635  163.2743 C.ar    1  UNL1        0.1797
      9 N         141.6438  141.8960  161.8087 N.ar    1  UNL1       -0.2268
     10 C         141.1580  142.0127  167.7632 C.2     1  UNL1        0.0081
     11 C         140.4501  143.1602  168.4206 C.2     1  UNL1       -0.0020
     12 C         140.3851  143.2433  169.9169 C.2     1  UNL1        0.0010
     13 C         141.0281  142.1789  170.7558 C.2     1  UNL1        0.0172
     14 C         141.7360  141.0314  170.0984 C.2     1  UNL1        0.0900
     15 N         142.4576  139.8425  170.6604 N.2     1  UNL1       -0.1519
     16 N         142.9686  139.0247  169.5114 N.2     1  UNL1       -0.1507
     17 C         142.5628  139.7081  168.2393 C.2     1  UNL1        0.1058
     18 C         141.8009  140.9483  168.6021 C.3     1  UNL1        0.1088
     19 N         139.4605  139.9836  163.2910 N.pl3   1  UNL1       -0.2857
     20 C         139.5300  138.5067  163.5441 C.3     1  UNL1        0.1243
     21 C         138.6163  137.5752  162.8043 C.3     1  UNL1        0.1636
     22 O         137.6330  138.1205  161.8114 O.3     1  UNL1       -0.3501
     23 C         137.5636  139.5973  161.5583 C.3     1  UNL1        0.1636
     24 C         138.4773  140.5289  162.2981 C.3     1  UNL1        0.1243
     25 C         143.3398  143.3512  160.3422 C.3     1  UNL1        0.1203
     26 N         140.7800  145.3922  157.2548 N.3     1  UNL1       -0.1565
     27 C         140.4430  145.5187  158.7110 C.3     1  UNL1        0.1128
     28 C         141.2964  144.8384  159.7401 C.3     1  UNL1        0.0918
     29 N         142.4865  144.0315  159.3131 N.3     1  UNL1       -0.2651
     30 C         142.8234  143.9049  157.8568 C.3     1  UNL1        0.0918
     31 C         141.9701  144.5853  156.8278 C.3     1  UNL1        0.1128
     32 C         139.0735  146.7528  155.1966 C.3     1  UNL1        0.1960
     33 S         139.9267  146.0725  156.2257 S.O2    1  UNL1        0.0457
     34 O         140.3711  145.0746  155.1976 O.2     1  UNL1       -0.1572
     35 O         139.4823  147.0703  157.2537 O.2     1  UNL1       -0.1572
@<TRIPOS>BOND
     1    32    33    1
     2    33    34    2
     3    33    35    2
     4    33    26    1
     5    26    27    1
     6    27    28    1
     7    28    29    1
     8    29    25    1
     9    25     1    1
    10     1     2   ar
    11     2     3   ar
    12     3     4   ar
    13     4     5   ar
    14     5    10    1
    15    10    11    2
    16    11    12    1
    17    12    13    2
    18    13    14    1
    19    14    15    2
    20    15    16    1
    21    16    17    2
    22    17    18    1
    23     5     6   ar
    24     6     7   ar
    25     7    19    1
    26    19    20    1
    27    20    21    1
    28    21    22    1
    29    22    23    1
    30    23    24    1
    31     7     8   ar
    32     8     9   ar
    33    29    30    1
    34    30    31    1
    35    31    26    1
    36     9     1   ar
    37     8     3   ar
    38    18    10    1
    39    24    19    1
    40    18    14    1
@<TRIPOS>MOLECULE
*****
 35 40 0 0 0
SMALL
GASTEIGER

@<TRIPOS>ATOM
      1 C         143.0113  139.6064  161.7705 C.ar    1  UNL1        0.0944
      2 C         143.3465  139.0871  163.1373 C.ar    1  UNL1        0.0977
      3 N         142.6806  139.9747  164.1465 N.ar    1  UNL1       -0.2840
      4 C         142.6578  139.9485  165.6461 C.ar    1  UNL1        0.1004
      5 C         141.8881  140.9902  166.4028 C.ar    1  UNL1        0.0971
      6 N         141.1414  142.0581  165.6599 N.ar    1  UNL1       -0.2264
      7 C         141.1642  142.0843  164.1603 C.ar    1  UNL1        0.1666
      8 C         141.9339  141.0426  163.4036 C.ar    1  UNL1        0.1797
      9 N         142.1383  140.8150  161.9351 N.ar    1  UNL1       -0.2268
     10 C         141.8652  140.9640  167.9024 C.2     1  UNL1        0.0081
     11 C         143.0641  141.4221  168.6789 C.2     1  UNL1       -0.0020
     12 C         143.0412  141.3959  170.1785 C.2     1  UNL1        0.0010
     13 C         141.8195  140.9116  170.9016 C.2     1  UNL1        0.0172
     14 C         140.6206  140.4536  170.1251 C.2     1  UNL1        0.0900
     15 N         139.2844  139.9281  170.5592 N.2     1  UNL1       -0.1519
     16 N         138.4815  139.6295  169.3278 N.2     1  UNL1       -0.1507
     17 C         139.3214  139.9705  168.1328 C.2     1  UNL1        0.1058
     18 C         140.6435  140.4798  168.6255 C.3     1  UNL1        0.1088
     19 N         140.4175  143.1522  163.4173 N.pl3   1  UNL1       -0.2857
     20 C         138.9222  143.0891  163.3153 C.3     1  UNL1        0.1243
     21 C         138.1754  144.1570  162.5725 C.3     1  UNL1        0.1636
     22 O         138.9239  145.2880  161.9315 O.3     1  UNL1       -0.3501
     23 C         140.4190  145.3511  162.0335 C.3     1  UNL1        0.1636
     24 C         141.1659  144.2832  162.7765 C.3     1  UNL1        0.1243
     25 C         143.4689  139.0201  160.4679 C.3     1  UNL1        0.1203
     26 N         140.4693  138.0716  157.2502 N.3     1  UNL1       -0.1565
     27 C         141.9371  138.0261  156.9442 C.3     1  UNL1        0.1128
     28 C         142.9369  138.3423  158.0169 C.3     1  UNL1        0.0918
     29 N         142.4690  138.7039  159.3954 N.3     1  UNL1       -0.2651
     30 C         141.0012  138.7494  159.7013 C.3     1  UNL1        0.0918
     31 C         140.0014  138.4332  158.6287 C.3     1  UNL1        0.1128
     32 C         138.4697  137.4391  155.1052 C.3     1  UNL1        0.1960
     33 S         139.4695  137.7554  156.1777 S.O2    1  UNL1        0.0457
     34 O         138.6350  138.9241  156.6111 O.2     1  UNL1       -0.1572
     35 O         140.3039  136.5867  155.7443 O.2     1  UNL1       -0.1572
@<TRIPOS>BOND
     1    32    33    1
     2    33    34    2
     3    33    35    2
     4    33    26    1
     5    26    27    1
     6    27    28    1
     7    28    29    1
     8    29    25    1
     9    25     1    1
    10     1     2   ar
    11     2     3   ar
    12     3     4   ar
    13     4     5   ar
    14     5    10    1
    15    10    11    2
    16    11    12    1
    17    12    13    2
    18    13    14    1
    19    14    15    2
    20    15    16    1
    21    16    17    2
    22    17    18    1
    23     5     6   ar
    24     6     7   ar
    25     7    19    1
    26    19    20    1
    27    20    21    1
    28    21    22    1
    29    22    23    1
    30    23    24    1
    31     7     8   ar
    32     8     9   ar
    33    29    30    1
    34    30    31    1
    35    31    26    1
    36     9     1   ar
    37     8     3   ar
    38    18    10    1
    39    24    19    1
    40    18    14    1
@<TRIPOS>MOLECULE
*****
 35 40 0 0 0
SMALL
GASTEIGER

@<TRIPOS>ATOM
      1 C         141.5837  143.7970  161.5858 C.ar    1  UNL1        0.0944
      2 C         141.9966  144.2738  162.9467 C.ar    1  UNL1        0.0977
      3 N         141.4415  143.3180  163.9608 N.ar    1  UNL1       -0.2840
      4 C         141.5268  143.2819  165.4579 C.ar    1  UNL1        0.1004
      5 C         140.8561  142.1781  166.2209 C.ar    1  UNL1        0.0971
      6 N         140.1002  141.1107  165.4868 N.ar    1  UNL1       -0.2264
      7 C         140.0150  141.1468  163.9896 C.ar    1  UNL1        0.1666
      8 C         140.6856  142.2505  163.2267 C.ar    1  UNL1        0.1797
      9 N         140.7734  142.5465  161.7588 N.ar    1  UNL1       -0.2268
     10 C         140.9414  142.1420  167.7181 C.2     1  UNL1        0.0081
     11 C         140.3038  143.2287  168.5321 C.2     1  UNL1       -0.0020
     12 C         140.3891  143.1926  170.0292 C.2     1  UNL1        0.0010
     13 C         141.1119  142.0697  170.7124 C.2     1  UNL1        0.0172
     14 C         141.7494  140.9829  169.8984 C.2     1  UNL1        0.0900
     15 N         142.5228  139.7584  170.2892 N.2     1  UNL1       -0.1519
     16 N         142.9154  139.0379  169.0335 N.2     1  UNL1       -0.1507
     17 C         142.3848  139.8170  167.8667 C.2     1  UNL1        0.1058
     18 C         141.6642  141.0191  168.4013 C.3     1  UNL1        0.1088
     19 N         139.2590  140.0793  163.2555 N.pl3   1  UNL1       -0.2857
     20 C         139.4845  138.6348  163.5913 C.3     1  UNL1        0.1243
     21 C         138.7287  137.5673  162.8572 C.3     1  UNL1        0.1636
     22 O         137.7472  137.9441  161.7872 O.3     1  UNL1       -0.3501
     23 C         137.5217  139.3886  161.4514 C.3     1  UNL1        0.1636
     24 C         138.2776  140.4562  162.1855 C.3     1  UNL1        0.1243
     25 C         141.9216  144.4550  160.2809 C.3     1  UNL1        0.1203
     26 N         144.3932  142.2600  157.2275 N.3     1  UNL1       -0.1565
     27 C         143.2779  143.1594  156.7834 C.3     1  UNL1        0.1128
     28 C         142.4541  143.8911  157.8013 C.3     1  UNL1        0.0918
     29 N         142.7455  143.7234  159.2632 N.3     1  UNL1       -0.2651
     30 C         143.8609  142.8239  159.7071 C.3     1  UNL1        0.0918
     31 C         144.6847  142.0923  158.6893 C.3     1  UNL1        0.1128
     32 C         146.0410  140.7966  155.1920 C.3     1  UNL1        0.1960
     33 S         145.2171  141.5283  156.2097 S.O2    1  UNL1        0.0457
     34 O         145.3144  142.7799  155.3887 O.2     1  UNL1       -0.1572
     35 O         145.1198  140.2768  157.0308 O.2     1  UNL1       -0.1572
@<TRIPOS>BOND
     1    32    33    1
     2    33    34    2
     3    33    35    2
     4    33    26    1
     5    26    27    1
     6    27    28    1
     7    28    29    1
     8    29    25    1
     9    25     1    1
    10     1     2   ar
    11     2     3   ar
    12     3     4   ar
    13     4     5   ar
    14     5    10    1
    15    10    11    2
    16    11    12    1
    17    12    13    2
    18    13    14    1
    19    14    15    2
    20    15    16    1
    21    16    17    2
    22    17    18    1
    23     5     6   ar
    24     6     7   ar
    25     7    19    1
    26    19    20    1
    27    20    21    1
    28    21    22    1
    29    22    23    1
    30    23    24    1
    31     7     8   ar
    32     8     9   ar
    33    29    30    1
    34    30    31    1
    35    31    26    1
    36     9     1   ar
    37     8     3   ar
    38    18    10    1
    39    24    19    1
    40    18    14    1
@<TRIPOS>MOLECULE
*****
 35 40 0 0 0
SMALL
GASTEIGER

@<TRIPOS>ATOM
      1 C         143.1139  140.2842  161.6912 C.ar    1  UNL1        0.0944
      2 C         143.5300  139.6782  162.9987 C.ar    1  UNL1        0.0977
      3 N         142.7720  140.3704  164.0925 N.ar    1  UNL1       -0.2840
      4 C         142.7729  140.1929  165.5819 C.ar    1  UNL1        0.1004
      5 C         141.8892  141.0492  166.4398 C.ar    1  UNL1        0.0971
      6 N         141.0048  142.0829  165.8083 N.ar    1  UNL1       -0.2264
      7 C         141.0038  142.2605  164.3189 C.ar    1  UNL1        0.1666
      8 C         141.8874  141.4042  163.4609 C.ar    1  UNL1        0.1797
      9 N         142.0987  141.3510  161.9769 N.ar    1  UNL1       -0.2268
     10 C         141.8902  140.8717  167.9294 C.2     1  UNL1        0.0081
     11 C         142.5402  139.6659  168.5405 C.2     1  UNL1       -0.0020
     12 C         142.5412  139.4883  170.0300 C.2     1  UNL1        0.0010
     13 C         141.8921  140.5166  170.9082 C.2     1  UNL1        0.0172
     14 C         141.2421  141.7224  170.2971 C.2     1  UNL1        0.0900
     15 N         140.5290  142.8943  170.9040 N.2     1  UNL1       -0.1519
     16 N         140.0874  143.7960  169.7896 N.2     1  UNL1       -0.1507
     17 C         140.5275  143.1815  168.4940 C.2     1  UNL1        0.1058
     18 C         141.2411  141.8999  168.8076 C.3     1  UNL1        0.1088
     19 N         140.1192  143.2943  163.6873 N.pl3   1  UNL1       -0.2857
     20 C         138.6309  143.1073  163.6846 C.3     1  UNL1        0.1243
     21 C         137.7463  144.1411  163.0531 C.3     1  UNL1        0.1636
     22 O         138.3500  145.3619  162.4243 O.3     1  UNL1       -0.3501
     23 C         139.8383  145.5488  162.4271 C.3     1  UNL1        0.1636
     24 C         140.7230  144.5150  163.0586 C.3     1  UNL1        0.1243
     25 C         143.6235  139.8924  160.3360 C.3     1  UNL1        0.1203
     26 N         140.7986  138.1861  157.2767 N.3     1  UNL1       -0.1565
     27 C         142.2020  138.5427  156.8851 C.3     1  UNL1        0.1128
     28 C         143.1436  139.1115  157.9050 C.3     1  UNL1        0.0918
     29 N         142.6819  139.3236  159.3162 N.3     1  UNL1       -0.2651
     30 C         141.2784  138.9670  159.7077 C.3     1  UNL1        0.0918
     31 C         140.3369  138.3983  158.6880 C.3     1  UNL1        0.1128
     32 C         138.9153  137.0487  155.2373 C.3     1  UNL1        0.1960
     33 S         139.8570  137.6174  156.2570 S.O2    1  UNL1        0.0457
     34 O         140.8707  136.5691  155.9055 O.2     1  UNL1       -0.1572
     35 O         138.8433  138.6656  156.6084 O.2     1  UNL1       -0.1572
@<TRIPOS>BOND
     1    32    33    1
     2    33    34    2
     3    33    35    2
     4    33    26    1
     5    26    27    1
     6    27    28    1
     7    28    29    1
     8    29    25    1
     9    25     1    1
    10     1     2   ar
    11     2     3   ar
    12     3     4   ar
    13     4     5   ar
    14     5    10    1
    15    10    11    2
    16    11    12    1
    17    12    13    2
    18    13    14    1
    19    14    15    2
    20    15    16    1
    21    16    17    2
    22    17    18    1
    23     5     6   ar
    24     6     7   ar
    25     7    19    1
    26    19    20    1
    27    20    21    1
    28    21    22    1
    29    22    23    1
    30    23    24    1
    31     7     8   ar
    32     8     9   ar
    33    29    30    1
    34    30    31    1
    35    31    26    1
    36     9     1   ar
    37     8     3   ar
    38    18    10    1
    39    24    19    1
    40    18    14    1
@<TRIPOS>MOLECULE
*****
 35 40 0 0 0
SMALL
GASTEIGER

@<TRIPOS>ATOM
      1 C         139.6248  139.5488  161.9140 C.ar    1  UNL1        0.0944
      2 C         139.1336  139.1305  163.2682 C.ar    1  UNL1        0.0977
      3 N         139.8751  139.9308  164.2977 N.ar    1  UNL1       -0.2840
      4 C         139.8083  139.9461  165.7961 C.ar    1  UNL1        0.1004
      5 C         140.6911  140.8744  166.5767 C.ar    1  UNL1        0.0971
      6 N         141.6404  141.7872  165.8588 N.ar    1  UNL1       -0.2264
      7 C         141.7072  141.7718  164.3604 C.ar    1  UNL1        0.1666
      8 C         140.8245  140.8436  163.5798 C.ar    1  UNL1        0.1797
      9 N         140.6699  140.6075  162.1066 N.ar    1  UNL1       -0.2268
     10 C         140.6243  140.8898  168.0752 C.2     1  UNL1        0.0081
     11 C         139.4746  140.2347  168.7815 C.2     1  UNL1       -0.0020
     12 C         139.4078  140.2500  170.2799 C.2     1  UNL1        0.0010
     13 C         140.4908  140.9205  171.0720 C.2     1  UNL1        0.0172
     14 C         141.6406  141.5757  170.3657 C.2     1  UNL1        0.0900
     15 N         142.8460  142.3084  170.8759 N.2     1  UNL1       -0.1519
     16 N         143.6577  142.7458  169.6927 N.2     1  UNL1       -0.1507
     17 C         142.9540  142.2835  168.4514 C.2     1  UNL1        0.1058
     18 C         141.7073  141.5603  168.8673 C.3     1  UNL1        0.1088
     19 N         142.6566  142.6846  163.6425 N.pl3   1  UNL1       -0.2857
     20 C         142.6211  144.1610  163.9056 C.3     1  UNL1        0.1243
     21 C         143.5704  145.0738  163.1878 C.3     1  UNL1        0.1636
     22 O         144.5555  144.5104  162.2068 O.3     1  UNL1       -0.3501
     23 C         144.5910  143.0341  161.9437 C.3     1  UNL1        0.1636
     24 C         143.6416  142.1212  162.6616 C.3     1  UNL1        0.1243
     25 C         139.1538  139.0040  160.5982 C.3     1  UNL1        0.1203
     26 N         142.1437  137.5635  157.5593 N.3     1  UNL1       -0.1565
     27 C         142.5663  137.7827  158.9817 C.3     1  UNL1        0.1128
     28 C         141.5696  138.2629  159.9947 C.3     1  UNL1        0.0918
     29 N         140.1504  138.5238  159.5852 N.3     1  UNL1       -0.2651
     30 C         139.7278  138.3046  158.1627 C.3     1  UNL1        0.0918
     31 C         140.7245  137.8244  157.1498 C.3     1  UNL1        0.1128
     32 C         144.1370  136.6032  155.5333 C.3     1  UNL1        0.1960
     33 S         143.1403  137.0833  156.5463 S.O2    1  UNL1        0.0457
     34 O         142.3612  135.8120  156.3824 O.2     1  UNL1       -0.1572
     35 O         143.9194  138.3545  156.7102 O.2     1  UNL1       -0.1572
@<TRIPOS>BOND
     1    32    33    1
     2    33    34    2
     3    33    35    2
     4    33    26    1
     5    26    27    1
     6    27    28    1
     7    28    29    1
     8    29    25    1
     9    25     1    1
    10     1     2   ar
    11     2     3   ar
    12     3     4   ar
    13     4     5   ar
    14     5    10    1
    15    10    11    2
    16    11    12    1
    17    12    13    2
    18    13    14    1
    19    14    15    2
    20    15    16    1
    21    16    17    2
    22    17    18    1
    23     5     6   ar
    24     6     7   ar
    25     7    19    1
    26    19    20    1
    27    20    21    1
    28    21    22    1
    29    22    23    1
    30    23    24    1
    31     7     8   ar
    32     8     9   ar
    33    29    30    1
    34    30    31    1
    35    31    26    1
    36     9     1   ar
    37     8     3   ar
    38    18    10    1
    39    24    19    1
    40    18    14    1
@<TRIPOS>MOLECULE
*****
 35 40 0 0 0
SMALL
GASTEIGER

@<TRIPOS>ATOM
      1 C         139.0918  139.1306  162.5329 C.ar    1  UNL1        0.0944
      2 C         138.9042  138.7746  163.9779 C.ar    1  UNL1        0.0977
      3 N         139.9346  139.5173  164.7758 N.ar    1  UNL1       -0.2840
      4 C         140.2287  139.5567  166.2462 C.ar    1  UNL1        0.1004
      5 C         141.3472  140.4113  166.7646 C.ar    1  UNL1        0.0971
      6 N         142.1716  141.2262  165.8128 N.ar    1  UNL1       -0.2264
      7 C         141.8775  141.1868  164.3425 C.ar    1  UNL1        0.1666
      8 C         140.7590  140.3324  163.8240 C.ar    1  UNL1        0.1797
      9 N         140.2382  140.0934  162.4378 N.ar    1  UNL1       -0.2268
     10 C         141.6413  140.4507  168.2351 C.2     1  UNL1        0.0081
     11 C         142.4306  139.3455  168.8719 C.2     1  UNL1       -0.0020
     12 C         142.7247  139.3849  170.3423 C.2     1  UNL1        0.0010
     13 C         142.2295  140.5295  171.1758 C.2     1  UNL1        0.0172
     14 C         141.4402  141.6347  170.5389 C.2     1  UNL1        0.0900
     15 N         140.8257  142.8822  171.1012 N.2     1  UNL1       -0.1519
     16 N         140.1519  143.6138  169.9783 N.2     1  UNL1       -0.1507
     17 C         140.3499  142.8184  168.7221 C.2     1  UNL1        0.1058
     18 C         141.1461  141.5953  169.0685 C.3     1  UNL1        0.1088
     19 N         142.7020  142.0019  163.3906 N.pl3   1  UNL1       -0.2857
     20 C         143.9629  141.4312  162.8121 C.3     1  UNL1        0.1243
     21 C         144.7873  142.2462  161.8603 C.3     1  UNL1        0.1636
     22 O         144.3509  143.6319  161.4869 O.3     1  UNL1       -0.3501
     23 C         143.0901  144.2025  162.0653 C.3     1  UNL1        0.1636
     24 C         142.2655  143.3875  163.0172 C.3     1  UNL1        0.1243
     25 C         138.2763  138.6146  161.3846 C.3     1  UNL1        0.1203
     26 N         139.0485  140.1269  157.2173 N.3     1  UNL1       -0.1565
     27 C         137.9821  140.7616  158.0599 C.3     1  UNL1        0.1128
     28 C         137.7248  140.2575  159.4490 C.3     1  UNL1        0.0918
     29 N         138.5337  139.1186  159.9955 N.3     1  UNL1       -0.2651
     30 C         139.6000  138.4839  159.1529 C.3     1  UNL1        0.0918
     31 C         139.8574  138.9880  157.7638 C.3     1  UNL1        0.1128
     32 C         139.5632  141.1349  154.4391 C.3     1  UNL1        0.1960
     33 S         139.3059  140.6309  155.8282 S.O2    1  UNL1        0.0457
     34 O         140.5378  141.3364  156.3125 O.2     1  UNL1       -0.1572
     35 O         138.0740  139.9254  155.3439 O.2     1  UNL1       -0.1572
@<TRIPOS>BOND
     1    32    33    1
     2    33    34    2
     3    33    35    2
     4    33    26    1
     5    26    27    1
     6    27    28    1
     7    28    29    1
     8    29    25    1
     9    25     1    1
    10     1     2   ar
    11     2     3   ar
    12     3     4   ar
    13     4     5   ar
    14     5    10    1
    15    10    11    2
    16    11    12    1
    17    12    13    2
    18    13    14    1
    19    14    15    2
    20    15    16    1
    21    16    17    2
    22    17    18    1
    23     5     6   ar
    24     6     7   ar
    25     7    19    1
    26    19    20    1
    27    20    21    1
    28    21    22    1
    29    22    23    1
    30    23    24    1
    31     7     8   ar
    32     8     9   ar
    33    29    30    1
    34    30    31    1
    35    31    26    1
    36     9     1   ar
    37     8     3   ar
    38    18    10    1
    39    24    19    1
    40    18    14    1
