@<TRIPOS>MOLECULE
*****
 29 33 0 0 0
SMALL
GASTEIGER

@<TRIPOS>ATOM
      1 C         140.2645  137.6802  162.9230 C.ar    1  UNL1       -0.0059
      2 C         139.2576  138.0682  161.8811 C.ar    1  UNL1        0.0002
      3 C         139.7131  138.4534  160.5048 C.ar    1  UNL1        0.0373
      4 C         141.1753  138.4506  160.1704 C.ar    1  UNL1        0.1477
      5 C         142.1822  138.0625  161.2125 C.ar    1  UNL1        0.0373
      6 C         141.7267  137.6773  162.5887 C.ar    1  UNL1        0.0002
      7 C         139.8090  137.2949  164.2994 C.3     1  UNL1        0.0992
      8 C         139.9558  140.3037  167.6424 C.3     1  UNL1        0.0815
      9 C         138.6615  139.6289  167.2970 C.3     1  UNL1        0.0373
     10 C         138.6126  138.6259  166.1826 C.3     1  UNL1        0.0741
     11 N         139.8580  138.2978  165.4137 N.3     1  UNL1       -0.2689
     12 C         141.1523  138.9726  165.7591 C.3     1  UNL1        0.0741
     13 C         141.2013  139.9755  166.8734 C.3     1  UNL1        0.0373
     14 O         138.9522  139.8145  170.7088 O.2     1  UNL1       -0.2262
     15 C         139.5434  141.0818  170.1662 C.2     1  UNL1        0.4050
     16 O         139.7772  142.3467  170.9377 O.3     1  UNL1       -0.4326
     17 C         140.3829  143.3533  170.0051 C.3     1  UNL1        0.2316
     18 C         140.5236  142.7105  168.6572 C.3     1  UNL1        0.1440
     19 N         140.0047  141.3066  168.7567 N.am    1  UNL1       -0.2437
     20 O         141.6308  138.8358  158.7942 O.3     1  UNL1       -0.4313
     21 C         141.7993  137.7840  157.7381 C.ar    1  UNL1        0.2628
     22 N         142.9671  136.8528  157.5995 N.ar    1  UNL1       -0.2050
     23 C         142.7192  135.9720  156.4110 C.ar    1  UNL1        0.0910
     24 C         143.5257  134.8678  155.7944 C.ar    1  UNL1        0.0197
     25 C         143.0111  134.1502  154.5819 C.ar    1  UNL1        0.0016
     26 C         141.6900  134.5370  153.9859 C.ar    1  UNL1        0.0006
     27 C         140.8835  135.6412  154.6024 C.ar    1  UNL1        0.0081
     28 C         141.3981  136.3587  155.8150 C.ar    1  UNL1        0.0515
     29 S         140.8296  137.4786  156.6352 S.2     1  UNL1       -0.0283
@<TRIPOS>BOND
     1    14    15    2
     2    15    16    1
     3    16    17    1
     4    17    18    1
     5    18    19    1
     6    19     8    1
     7     8     9    1
     8     9    10    1
     9    10    11    1
    10    11     7    1
    11     7     1    1
    12     1     2   ar
    13     2     3   ar
    14     3     4   ar
    15     4    20    1
    16    20    21    1
    17    21    22   ar
    18    22    23   ar
    19    23    24   ar
    20    24    25   ar
    21    25    26   ar
    22    26    27   ar
    23    27    28   ar
    24    28    29   ar
    25     4     5   ar
    26     5     6   ar
    27    11    12    1
    28    12    13    1
    29    19    15   am
    30    13     8    1
    31     6     1   ar
    32    29    21   ar
    33    28    23   ar
@<TRIPOS>MOLECULE
*****
 29 33 0 0 0
SMALL
GASTEIGER

@<TRIPOS>ATOM
      1 C         139.4895  137.8697  163.0161 C.ar    1  UNL1       -0.0059
      2 C         140.8986  137.6731  162.5410 C.ar    1  UNL1        0.0002
      3 C         141.2864  138.0865  161.1522 C.ar    1  UNL1        0.0373
      4 C         140.2650  138.6965  160.2385 C.ar    1  UNL1        0.1477
      5 C         138.8559  138.8931  160.7137 C.ar    1  UNL1        0.0373
      6 C         138.4681  138.4797  162.1025 C.ar    1  UNL1        0.0002
      7 C         139.1017  137.4563  164.4049 C.3     1  UNL1        0.0992
      8 C         139.7571  140.2694  167.8555 C.3     1  UNL1        0.0815
      9 C         140.8436  140.0584  166.8431 C.3     1  UNL1        0.0373
     10 C         140.6251  139.1206  165.6929 C.3     1  UNL1        0.0741
     11 N         139.3201  138.3940  165.5551 N.3     1  UNL1       -0.2689
     12 C         138.2336  138.6051  166.5675 C.3     1  UNL1        0.0741
     13 C         138.4521  139.5428  167.7177 C.3     1  UNL1        0.0373
     14 O         139.4750  139.5224  171.0197 O.2     1  UNL1       -0.2262
     15 C         139.8459  140.8638  170.4601 C.2     1  UNL1        0.4050
     16 O         140.1523  142.0973  171.2566 O.3     1  UNL1       -0.4326
     17 C         140.4713  143.2030  170.2946 C.3     1  UNL1        0.2316
     18 C         140.3621  142.6528  168.9034 C.3     1  UNL1        0.1440
     19 N         139.9756  141.2071  169.0057 N.am    1  UNL1       -0.2437
     20 O         140.6528  139.1099  158.8497 O.3     1  UNL1       -0.4313
     21 C         141.1383  138.0834  157.8697 C.ar    1  UNL1        0.2628
     22 N         140.3000  137.3743  156.8477 N.ar    1  UNL1       -0.2050
     23 C         141.1909  136.4384  156.0859 C.ar    1  UNL1        0.0910
     24 C         140.9169  135.4841  154.9615 C.ar    1  UNL1        0.0197
     25 C         142.0318  134.6604  154.3883 C.ar    1  UNL1        0.0016
     26 C         143.4207  134.7911  154.9395 C.ar    1  UNL1        0.0006
     27 C         143.6947  135.7454  156.0639 C.ar    1  UNL1        0.0081
     28 C         142.5798  136.5690  156.6370 C.ar    1  UNL1        0.0515
     29 S         142.5473  137.5857  157.7395 S.2     1  UNL1       -0.0283
@<TRIPOS>BOND
     1    14    15    2
     2    15    16    1
     3    16    17    1
     4    17    18    1
     5    18    19    1
     6    19     8    1
     7     8     9    1
     8     9    10    1
     9    10    11    1
    10    11     7    1
    11     7     1    1
    12     1     2   ar
    13     2     3   ar
    14     3     4   ar
    15     4    20    1
    16    20    21    1
    17    21    22   ar
    18    22    23   ar
    19    23    24   ar
    20    24    25   ar
    21    25    26   ar
    22    26    27   ar
    23    27    28   ar
    24    28    29   ar
    25     4     5   ar
    26     5     6   ar
    27    11    12    1
    28    12    13    1
    29    19    15   am
    30    13     8    1
    31     6     1   ar
    32    29    21   ar
    33    28    23   ar
@<TRIPOS>MOLECULE
*****
 29 33 0 0 0
SMALL
GASTEIGER

@<TRIPOS>ATOM
      1 C         143.8241  139.2821  162.6071 C.ar    1  UNL1       -0.0059
      2 C         144.1516  140.2727  161.5294 C.ar    1  UNL1        0.0002
      3 C         143.4486  140.2013  160.2062 C.ar    1  UNL1        0.0373
      4 C         142.4181  139.1393  159.9608 C.ar    1  UNL1        0.1477
      5 C         142.0906  138.1487  161.0386 C.ar    1  UNL1        0.0373
      6 C         142.7936  138.2202  162.3617 C.ar    1  UNL1        0.0002
      7 C         144.5272  139.3535  163.9303 C.3     1  UNL1        0.0992
      8 C         142.6291  141.5460  167.3713 C.3     1  UNL1        0.0815
      9 C         142.4985  140.0552  167.2682 C.3     1  UNL1        0.0373
     10 C         143.1312  139.3244  166.1212 C.3     1  UNL1        0.0741
     11 N         143.8945  140.0843  165.0772 N.3     1  UNL1       -0.2689
     12 C         144.0251  141.5751  165.1803 C.3     1  UNL1        0.0741
     13 C         143.3925  142.3059  166.3272 C.3     1  UNL1        0.0373
     14 O         144.1986  142.8243  169.9310 O.2     1  UNL1       -0.2262
     15 C         142.7179  142.8644  169.6948 C.2     1  UNL1        0.4050
     16 O         141.6985  143.4990  170.5937 O.3     1  UNL1       -0.4326
     17 C         140.3471  143.3037  169.9728 C.3     1  UNL1        0.2316
     18 C         140.5313  142.5483  168.6900 C.3     1  UNL1        0.1440
     19 N         141.9965  142.2768  168.5182 N.am    1  UNL1       -0.2437
     20 O         141.7150  139.0679  158.6377 O.3     1  UNL1       -0.4313
     21 C         141.9057  137.8734  157.7506 C.ar    1  UNL1        0.2628
     22 N         143.1185  136.9918  157.7075 N.ar    1  UNL1       -0.2050
     23 C         142.8794  135.9244  156.6811 C.ar    1  UNL1        0.0910
     24 C         143.7248  134.7791  156.2085 C.ar    1  UNL1        0.0197
     25 C         143.2096  133.8556  155.1446 C.ar    1  UNL1        0.0016
     26 C         141.8489  134.0775  154.5534 C.ar    1  UNL1        0.0006
     27 C         141.0035  135.2229  155.0261 C.ar    1  UNL1        0.0081
     28 C         141.5188  136.1463  156.0899 C.ar    1  UNL1        0.0515
     29 S         140.9170  137.3509  156.7509 S.2     1  UNL1       -0.0283
@<TRIPOS>BOND
     1    14    15    2
     2    15    16    1
     3    16    17    1
     4    17    18    1
     5    18    19    1
     6    19     8    1
     7     8     9    1
     8     9    10    1
     9    10    11    1
    10    11     7    1
    11     7     1    1
    12     1     2   ar
    13     2     3   ar
    14     3     4   ar
    15     4    20    1
    16    20    21    1
    17    21    22   ar
    18    22    23   ar
    19    23    24   ar
    20    24    25   ar
    21    25    26   ar
    22    26    27   ar
    23    27    28   ar
    24    28    29   ar
    25     4     5   ar
    26     5     6   ar
    27    11    12    1
    28    12    13    1
    29    19    15   am
    30    13     8    1
    31     6     1   ar
    32    29    21   ar
    33    28    23   ar
@<TRIPOS>MOLECULE
*****
 29 33 0 0 0
SMALL
GASTEIGER

@<TRIPOS>ATOM
      1 C         138.6928  138.8687  162.5453 C.ar    1  UNL1       -0.0059
      2 C         139.0700  137.6651  163.3572 C.ar    1  UNL1        0.0002
      3 C         138.9475  137.7002  164.8518 C.ar    1  UNL1        0.0373
      4 C         138.4479  138.9389  165.5345 C.ar    1  UNL1        0.1477
      5 C         138.0708  140.1425  164.7225 C.ar    1  UNL1        0.0373
      6 C         138.1932  140.1074  163.2280 C.ar    1  UNL1        0.0002
      7 C         138.8153  138.8336  161.0507 C.3     1  UNL1        0.0992
      8 C         139.9199  142.5677  158.7953 C.3     1  UNL1        0.0815
      9 C         140.9632  141.8293  159.5803 C.3     1  UNL1        0.0373
     10 C         140.5950  140.5846  160.3321 C.3     1  UNL1        0.0741
     11 N         139.1834  140.0783  160.2989 N.3     1  UNL1       -0.2689
     12 C         138.1401  140.8166  159.5139 C.3     1  UNL1        0.0741
     13 C         138.5082  142.0613  158.7622 C.3     1  UNL1        0.0373
     14 O         139.8390  145.6118  159.9685 O.2     1  UNL1       -0.2262
     15 C         140.2509  145.2116  158.5828 C.2     1  UNL1        0.4050
     16 O         140.6979  146.1403  157.4931 O.3     1  UNL1       -0.4326
     17 C         141.0113  145.3151  156.2803 C.3     1  UNL1        0.2316
     18 C         140.7580  143.8763  156.6206 C.3     1  UNL1        0.1440
     19 N         140.2880  143.8123  158.0436 N.am    1  UNL1       -0.2437
     20 O         138.3255  138.9740  167.0290 O.3     1  UNL1       -0.4313
     21 C         139.3128  139.7553  167.8443 C.ar    1  UNL1        0.2628
     22 N         139.2378  140.0008  169.3222 N.ar    1  UNL1       -0.2050
     23 C         140.4271  140.8256  169.7161 C.ar    1  UNL1        0.0910
     24 C         140.8771  141.3701  171.0393 C.ar    1  UNL1        0.0197
     25 C         142.1372  142.1789  171.1281 C.ar    1  UNL1        0.0016
     26 C         142.9473  142.4432  169.8937 C.ar    1  UNL1        0.0006
     27 C         142.4974  141.8987  168.5705 C.ar    1  UNL1        0.0081
     28 C         141.2373  141.0899  168.4817 C.ar    1  UNL1        0.0515
     29 S         140.5486  140.4284  167.3249 S.2     1  UNL1       -0.0283
@<TRIPOS>BOND
     1    14    15    2
     2    15    16    1
     3    16    17    1
     4    17    18    1
     5    18    19    1
     6    19     8    1
     7     8     9    1
     8     9    10    1
     9    10    11    1
    10    11     7    1
    11     7     1    1
    12     1     2   ar
    13     2     3   ar
    14     3     4   ar
    15     4    20    1
    16    20    21    1
    17    21    22   ar
    18    22    23   ar
    19    23    24   ar
    20    24    25   ar
    21    25    26   ar
    22    26    27   ar
    23    27    28   ar
    24    28    29   ar
    25     4     5   ar
    26     5     6   ar
    27    11    12    1
    28    12    13    1
    29    19    15   am
    30    13     8    1
    31     6     1   ar
    32    29    21   ar
    33    28    23   ar
@<TRIPOS>MOLECULE
*****
 29 33 0 0 0
SMALL
GASTEIGER

@<TRIPOS>ATOM
      1 C         138.9532  138.4893  162.5293 C.ar    1  UNL1       -0.0059
      2 C         139.3526  137.4245  163.5074 C.ar    1  UNL1        0.0002
      3 C         139.1162  137.6272  164.9748 C.ar    1  UNL1        0.0373
      4 C         138.4805  138.8947  165.4640 C.ar    1  UNL1        0.1477
      5 C         138.0811  139.9595  164.4858 C.ar    1  UNL1        0.0373
      6 C         138.3174  139.7568  163.0185 C.ar    1  UNL1        0.0002
      7 C         139.1896  138.2867  161.0619 C.3     1  UNL1        0.0992
      8 C         142.6746  140.2964  159.0457 C.3     1  UNL1        0.0815
      9 C         142.8676  139.6024  160.3614 C.3     1  UNL1        0.0373
     10 C         141.7059  138.9325  161.0335 C.3     1  UNL1        0.0741
     11 N         140.3512  138.9566  160.3898 N.3     1  UNL1       -0.2689
     12 C         140.1583  139.6505  159.0741 C.3     1  UNL1        0.0741
     13 C         141.3199  140.3204  158.4020 C.3     1  UNL1        0.0373
     14 O         144.3051  139.1650  156.4550 O.2     1  UNL1       -0.2262
     15 C         144.5857  140.4463  157.1828 C.2     1  UNL1        0.4050
     16 O         145.6651  141.4325  156.8476 O.3     1  UNL1       -0.4326
     17 C         145.5828  142.5619  157.8312 C.3     1  UNL1        0.2316
     18 C         144.4525  142.2738  158.7743 C.3     1  UNL1        0.1440
     19 N         143.8363  140.9663  158.3736 N.am    1  UNL1       -0.2437
     20 O         138.2441  139.0974  166.9313 O.3     1  UNL1       -0.4313
     21 C         139.2368  139.8664  167.7517 C.ar    1  UNL1        0.2628
     22 N         139.2656  139.9516  169.2490 N.ar    1  UNL1       -0.2050
     23 C         140.4217  140.8231  169.6416 C.ar    1  UNL1        0.0910
     24 C         140.9385  141.2624  170.9794 C.ar    1  UNL1        0.0197
     25 C         142.1411  142.1550  171.0625 C.ar    1  UNL1        0.0016
     26 C         142.8268  142.6084  169.8078 C.ar    1  UNL1        0.0006
     27 C         142.3099  142.1691  168.4700 C.ar    1  UNL1        0.0081
     28 C         141.1074  141.2764  168.3869 C.ar    1  UNL1        0.0515
     29 S         140.3751  140.6851  167.2189 S.2     1  UNL1       -0.0283
@<TRIPOS>BOND
     1    14    15    2
     2    15    16    1
     3    16    17    1
     4    17    18    1
     5    18    19    1
     6    19     8    1
     7     8     9    1
     8     9    10    1
     9    10    11    1
    10    11     7    1
    11     7     1    1
    12     1     2   ar
    13     2     3   ar
    14     3     4   ar
    15     4    20    1
    16    20    21    1
    17    21    22   ar
    18    22    23   ar
    19    23    24   ar
    20    24    25   ar
    21    25    26   ar
    22    26    27   ar
    23    27    28   ar
    24    28    29   ar
    25     4     5   ar
    26     5     6   ar
    27    11    12    1
    28    12    13    1
    29    19    15   am
    30    13     8    1
    31     6     1   ar
    32    29    21   ar
    33    28    23   ar
@<TRIPOS>MOLECULE
*****
 29 33 0 0 0
SMALL
GASTEIGER

@<TRIPOS>ATOM
      1 C         138.9828  139.9389  162.1235 C.ar    1  UNL1       -0.0059
      2 C         139.1108  141.0834  161.1624 C.ar    1  UNL1        0.0002
      3 C         140.0560  140.9860  160.0017 C.ar    1  UNL1        0.0373
      4 C         140.8731  139.7441  159.8021 C.ar    1  UNL1        0.1477
      5 C         140.7451  138.5995  160.7632 C.ar    1  UNL1        0.0373
      6 C         139.8000  138.6969  161.9238 C.ar    1  UNL1        0.0002
      7 C         138.0377  140.0363  163.2842 C.3     1  UNL1        0.0992
      8 C         139.6460  140.4273  167.4688 C.3     1  UNL1        0.0815
      9 C         138.9052  139.1878  167.0628 C.3     1  UNL1        0.0373
     10 C         138.3691  139.0575  165.6679 C.3     1  UNL1        0.0741
     11 N         138.5738  140.1666  164.6790 N.3     1  UNL1       -0.2689
     12 C         139.3145  141.4062  165.0850 C.3     1  UNL1        0.0741
     13 C         139.8506  141.5365  166.4798 C.3     1  UNL1        0.0373
     14 O         137.9678  139.9300  170.2230 O.2     1  UNL1       -0.2262
     15 C         139.4107  140.3291  170.1296 C.2     1  UNL1        0.4050
     16 O         140.3356  140.5697  171.2857 O.3     1  UNL1       -0.4326
     17 C         141.6785  140.9470  170.7343 C.3     1  UNL1        0.2316
     18 C         141.5836  140.9396  169.2373 C.3     1  UNL1        0.1440
     19 N         140.1821  140.5577  168.8636 N.am    1  UNL1       -0.2437
     20 O         141.8183  139.6466  158.6414 O.3     1  UNL1       -0.4313
     21 C         141.9178  138.3699  157.8604 C.ar    1  UNL1        0.2628
     22 N         142.9915  137.3319  158.0007 N.ar    1  UNL1       -0.2050
     23 C         142.6984  136.2275  157.0289 C.ar    1  UNL1        0.0910
     24 C         143.4121  134.9441  156.7230 C.ar    1  UNL1        0.0197
     25 C         142.8709  134.0161  155.6761 C.ar    1  UNL1        0.0016
     26 C         141.6160  134.3715  154.9352 C.ar    1  UNL1        0.0006
     27 C         140.9023  135.6549  155.2412 C.ar    1  UNL1        0.0081
     28 C         141.4436  136.5828  156.2880 C.ar    1  UNL1        0.0515
     29 S         140.9611  137.9069  156.8019 S.2     1  UNL1       -0.0283
@<TRIPOS>BOND
     1    14    15    2
     2    15    16    1
     3    16    17    1
     4    17    18    1
     5    18    19    1
     6    19     8    1
     7     8     9    1
     8     9    10    1
     9    10    11    1
    10    11     7    1
    11     7     1    1
    12     1     2   ar
    13     2     3   ar
    14     3     4   ar
    15     4    20    1
    16    20    21    1
    17    21    22   ar
    18    22    23   ar
    19    23    24   ar
    20    24    25   ar
    21    25    26   ar
    22    26    27   ar
    23    27    28   ar
    24    28    29   ar
    25     4     5   ar
    26     5     6   ar
    27    11    12    1
    28    12    13    1
    29    19    15   am
    30    13     8    1
    31     6     1   ar
    32    29    21   ar
    33    28    23   ar
@<TRIPOS>MOLECULE
*****
 29 33 0 0 0
SMALL
GASTEIGER

@<TRIPOS>ATOM
      1 C         140.1159  138.6285  159.2556 C.ar    1  UNL1       -0.0059
      2 C         139.8568  138.1916  157.8443 C.ar    1  UNL1        0.0002
      3 C         140.9599  137.5763  157.0351 C.ar    1  UNL1        0.0373
      4 C         142.3221  137.3980  157.6373 C.ar    1  UNL1        0.1477
      5 C         142.5812  137.8350  159.0487 C.ar    1  UNL1        0.0373
      6 C         141.4781  138.4502  159.8578 C.ar    1  UNL1        0.0002
      7 C         139.0128  139.2438  160.0648 C.3     1  UNL1        0.0992
      8 C         139.4272  139.5976  164.5317 C.3     1  UNL1        0.0815
      9 C         139.6519  140.7976  163.6602 C.3     1  UNL1        0.0373
     10 C         139.5138  140.6796  162.1712 C.3     1  UNL1        0.0741
     11 N         139.1510  139.3617  161.5537 N.3     1  UNL1       -0.2689
     12 C         138.9263  138.1617  162.4252 C.3     1  UNL1        0.0741
     13 C         139.0644  138.2796  163.9141 C.3     1  UNL1        0.0373
     14 O         137.2919  138.5125  166.7481 O.2     1  UNL1       -0.2262
     15 C         138.5838  139.2168  167.0394 C.2     1  UNL1        0.4050
     16 O         139.1212  139.5460  168.4006 O.3     1  UNL1       -0.4326
     17 C         140.4347  140.2481  168.2231 C.3     1  UNL1        0.2316
     18 C         140.7092  140.3529  166.7522 C.3     1  UNL1        0.1440
     19 N         139.5653  139.7155  166.0206 N.am    1  UNL1       -0.2437
     20 O         143.4252  136.7828  156.8282 O.3     1  UNL1       -0.4313
     21 C         143.3336  135.3467  156.4049 C.ar    1  UNL1        0.2628
     22 N         143.1196  134.8521  155.0050 N.ar    1  UNL1       -0.2050
     23 C         143.0937  133.3528  155.0420 C.ar    1  UNL1        0.0910
     24 C         142.9154  132.3251  153.9641 C.ar    1  UNL1        0.0197
     25 C         142.9350  130.8654  154.3088 C.ar    1  UNL1        0.0016
     26 C         143.1330  130.4334  155.7316 C.ar    1  UNL1        0.0006
     27 C         143.3113  131.4611  156.8095 C.ar    1  UNL1        0.0081
     28 C         143.2916  132.9207  156.4648 C.ar    1  UNL1        0.0515
     29 S         143.4399  134.1531  157.3070 S.2     1  UNL1       -0.0283
@<TRIPOS>BOND
     1    14    15    2
     2    15    16    1
     3    16    17    1
     4    17    18    1
     5    18    19    1
     6    19     8    1
     7     8     9    1
     8     9    10    1
     9    10    11    1
    10    11     7    1
    11     7     1    1
    12     1     2   ar
    13     2     3   ar
    14     3     4   ar
    15     4    20    1
    16    20    21    1
    17    21    22   ar
    18    22    23   ar
    19    23    24   ar
    20    24    25   ar
    21    25    26   ar
    22    26    27   ar
    23    27    28   ar
    24    28    29   ar
    25     4     5   ar
    26     5     6   ar
    27    11    12    1
    28    12    13    1
    29    19    15   am
    30    13     8    1
    31     6     1   ar
    32    29    21   ar
    33    28    23   ar
@<TRIPOS>MOLECULE
*****
 29 33 0 0 0
SMALL
GASTEIGER

@<TRIPOS>ATOM
      1 C         140.8256  138.9378  160.2550 C.ar    1  UNL1       -0.0059
      2 C         140.3333  138.8436  158.8412 C.ar    1  UNL1        0.0002
      3 C         141.1553  138.1339  157.8065 C.ar    1  UNL1        0.0373
      4 C         142.4697  137.5185  158.1855 C.ar    1  UNL1        0.1477
      5 C         142.9620  137.6127  159.5993 C.ar    1  UNL1        0.0373
      6 C         142.1400  138.3224  160.6340 C.ar    1  UNL1        0.0002
      7 C         140.0036  139.6475  161.2897 C.3     1  UNL1        0.0992
      8 C         141.2827  139.5948  165.6038 C.3     1  UNL1        0.0815
      9 C         141.6863  140.7343  164.7157 C.3     1  UNL1        0.0373
     10 C         141.2599  140.7518  163.2776 C.3     1  UNL1        0.0741
     11 N         140.4299  139.6299  162.7277 N.3     1  UNL1       -0.2689
     12 C         140.0263  138.4905  163.6158 C.3     1  UNL1        0.0741
     13 C         140.4526  138.4729  165.0538 C.3     1  UNL1        0.0373
     14 O         143.9496  138.1403  166.7961 O.2     1  UNL1       -0.2262
     15 C         142.9349  138.9086  167.5899 C.2     1  UNL1        0.4050
     16 O         142.9678  139.1434  169.0710 O.3     1  UNL1       -0.4326
     17 C         141.7624  139.9570  169.4383 C.3     1  UNL1        0.2316
     18 C         140.9844  140.2251  168.1842 C.3     1  UNL1        0.1440
     19 N         141.7090  139.5772  167.0418 N.am    1  UNL1       -0.2437
     20 O         143.2917  136.8088  157.1508 O.3     1  UNL1       -0.4313
     21 C         142.9820  135.3852  156.7939 C.ar    1  UNL1        0.2628
     22 N         141.9343  134.9276  155.8228 N.ar    1  UNL1       -0.2050
     23 C         141.9703  133.4288  155.7740 C.ar    1  UNL1        0.0910
     24 C         141.1671  132.4304  154.9944 C.ar    1  UNL1        0.0197
     25 C         141.4338  130.9632  155.1558 C.ar    1  UNL1        0.0016
     26 C         142.5038  130.4944  156.0968 C.ar    1  UNL1        0.0006
     27 C         143.3070  131.4929  156.8765 C.ar    1  UNL1        0.0081
     28 C         143.0403  132.9601  156.7151 C.ar    1  UNL1        0.0515
     29 S         143.6654  134.1692  157.3454 S.2     1  UNL1       -0.0283
@<TRIPOS>BOND
     1    14    15    2
     2    15    16    1
     3    16    17    1
     4    17    18    1
     5    18    19    1
     6    19     8    1
     7     8     9    1
     8     9    10    1
     9    10    11    1
    10    11     7    1
    11     7     1    1
    12     1     2   ar
    13     2     3   ar
    14     3     4   ar
    15     4    20    1
    16    20    21    1
    17    21    22   ar
    18    22    23   ar
    19    23    24   ar
    20    24    25   ar
    21    25    26   ar
    22    26    27   ar
    23    27    28   ar
    24    28    29   ar
    25     4     5   ar
    26     5     6   ar
    27    11    12    1
    28    12    13    1
    29    19    15   am
    30    13     8    1
    31     6     1   ar
    32    29    21   ar
    33    28    23   ar
@<TRIPOS>MOLECULE
*****
 29 33 0 0 0
SMALL
GASTEIGER

@<TRIPOS>ATOM
      1 C         141.6540  139.2643  161.0009 C.ar    1  UNL1       -0.0059
      2 C         142.5358  140.2959  161.6397 C.ar    1  UNL1        0.0002
      3 C         143.1070  140.0526  163.0052 C.ar    1  UNL1        0.0373
      4 C         142.7964  138.7776  163.7318 C.ar    1  UNL1        0.1477
      5 C         141.9145  137.7460  163.0929 C.ar    1  UNL1        0.0373
      6 C         141.3434  137.9894  161.7275 C.ar    1  UNL1        0.0002
      7 C         141.0828  139.5076  159.6353 C.3     1  UNL1        0.0992
      8 C         141.6463  136.4493  156.3829 C.3     1  UNL1        0.0815
      9 C         140.3125  137.1101  156.5680 C.3     1  UNL1        0.0373
     10 C         140.1247  138.1296  157.6522 C.3     1  UNL1        0.0741
     11 N         141.2706  138.4882  158.5512 N.3     1  UNL1       -0.2689
     12 C         142.6044  137.8274  158.3660 C.3     1  UNL1        0.0741
     13 C         142.7923  136.8079  157.2819 C.3     1  UNL1        0.0373
     14 O         142.3745  133.2981  156.8183 O.2     1  UNL1       -0.2262
     15 C         142.1689  133.9814  155.4989 C.2     1  UNL1        0.4050
     16 O         142.2619  133.3362  154.1479 O.3     1  UNL1       -0.4326
     17 C         141.9847  134.3859  153.1129 C.3     1  UNL1        0.2316
     18 C         141.7204  135.6798  153.8241 C.3     1  UNL1        0.1440
     19 N         141.8342  135.4298  155.2987 N.am    1  UNL1       -0.2437
     20 O         143.3676  138.5343  165.0973 O.3     1  UNL1       -0.4313
     21 C         142.6253  139.0000  166.3147 C.ar    1  UNL1        0.2628
     22 N         143.1189  138.9286  167.7293 N.ar    1  UNL1       -0.2050
     23 C         142.0577  139.5034  168.6202 C.ar    1  UNL1        0.0910
     24 C         141.9896  139.6934  170.1065 C.ar    1  UNL1        0.0197
     25 C         140.7721  140.3101  170.7287 C.ar    1  UNL1        0.0016
     26 C         139.6226  140.7368  169.8646 C.ar    1  UNL1        0.0006
     27 C         139.6907  140.5468  168.3783 C.ar    1  UNL1        0.0081
     28 C         140.9083  139.9301  167.7561 C.ar    1  UNL1        0.0515
     29 S         141.2591  139.6190  166.3312 S.2     1  UNL1       -0.0283
@<TRIPOS>BOND
     1    14    15    2
     2    15    16    1
     3    16    17    1
     4    17    18    1
     5    18    19    1
     6    19     8    1
     7     8     9    1
     8     9    10    1
     9    10    11    1
    10    11     7    1
    11     7     1    1
    12     1     2   ar
    13     2     3   ar
    14     3     4   ar
    15     4    20    1
    16    20    21    1
    17    21    22   ar
    18    22    23   ar
    19    23    24   ar
    20    24    25   ar
    21    25    26   ar
    22    26    27   ar
    23    27    28   ar
    24    28    29   ar
    25     4     5   ar
    26     5     6   ar
    27    11    12    1
    28    12    13    1
    29    19    15   am
    30    13     8    1
    31     6     1   ar
    32    29    21   ar
    33    28    23   ar
