@<TRIPOS>MOLECULE
*****
 32 36 0 0 0
SMALL
GASTEIGER

@<TRIPOS>ATOM
      1 O         143.6694  142.5875  167.6752 O.2     1  UNL1       -0.2258
      2 C         142.6887  142.7640  166.5541 C.2     1  UNL1        0.4087
      3 O         142.9911  143.3328  165.1993 O.3     1  UNL1       -0.4398
      4 C         141.7226  143.3230  164.3988 C.3     1  UNL1        0.1561
      5 C         142.9055  143.8762  163.6608 C.3     1  UNL1        0.0425
      6 C         142.7506  144.3569  162.2484 C.3     1  UNL1        0.0160
      7 C         141.4127  144.2843  161.5740 C.3     1  UNL1        0.1122
      8 C         140.2298  143.7311  162.3119 C.3     1  UNL1        0.0160
      9 C         140.3848  143.2505  163.7243 C.3     1  UNL1        0.0425
     10 C         140.6362  142.7482  165.2587 C.3     1  UNL1        0.1416
     11 N         141.2332  142.4027  166.5907 N.am    1  UNL1       -0.2178
     12 C         141.2579  144.7650  160.1615 C.2     1  UNL1        0.3506
     13 N         140.1104  145.5679  159.6242 N.2     1  UNL1       -0.0350
     14 C         140.3666  145.8263  158.1690 C.2     1  UNL1        0.2348
     15 C         139.5796  146.5641  157.1268 C.2     1  UNL1        0.0869
     16 C         140.0985  146.6588  155.7226 C.2     1  UNL1        0.1468
     17 C         141.4043  146.0156  155.3605 C.2     1  UNL1        0.0200
     18 C         142.1913  145.2777  156.4027 C.3     1  UNL1        0.1068
     19 C         141.6725  145.1831  157.8069 C.2     1  UNL1        0.2176
     20 N         142.2233  144.5272  159.0384 N.2     1  UNL1       -0.0389
     21 O         139.3114  147.3966  154.6804 O.2     1  UNL1       -0.4047
     22 C         139.5198  148.8694  154.4863 C.3     1  UNL1        0.5753
     23 F         139.7281  150.3421  154.2922 F       1  UNL1       -0.1328
     24 F         138.4086  149.1540  155.4528 F       1  UNL1       -0.1328
     25 F         140.6310  148.5849  153.5197 F       1  UNL1       -0.1328
     26 C         140.5032  141.8015  167.7549 C.ar    1  UNL1        0.1029
     27 C         140.3592  142.5764  169.0311 C.ar    1  UNL1        0.0205
     28 C         139.6291  141.9751  170.1953 C.ar    1  UNL1        0.0221
     29 C         139.0429  140.5990  170.0833 C.ar    1  UNL1        0.1014
     30 N         139.1868  139.8240  168.8070 N.ar    1  UNL1       -0.2154
     31 C         139.9169  140.4253  167.6429 C.ar    1  UNL1        0.2361
     32 F         140.0609  139.6503  166.3666 F       1  UNL1       -0.1818
@<TRIPOS>BOND
     1     1     2    2
     2     2     3    1
     3     3     4    1
     4     4     5    1
     5     5     6    1
     6     6     7    1
     7     7    12    1
     8    12    13    2
     9    13    14    1
    10    14    15    2
    11    15    16    1
    12    16    21    1
    13    21    22    1
    14    22    23    1
    15    22    24    1
    16    22    25    1
    17    16    17    2
    18    17    18    1
    19    18    19    1
    20    19    20    2
    21     7     8    1
    22     8     9    1
    23     4    10    1
    24    10    11    1
    25    11    26    1
    26    26    27   ar
    27    27    28   ar
    28    28    29   ar
    29    29    30   ar
    30    30    31   ar
    31    31    32    1
    32    11     2   am
    33    31    26   ar
    34     9     4    1
    35    20    12    1
    36    19    14    1
@<TRIPOS>MOLECULE
*****
 32 36 0 0 0
SMALL
GASTEIGER

@<TRIPOS>ATOM
      1 O         138.4855  143.6102  155.4414 O.2     1  UNL1       -0.2258
      2 C         139.1505  144.1339  156.6798 C.2     1  UNL1        0.4087
      3 O         139.2898  143.4027  157.9822 O.3     1  UNL1       -0.4398
      4 C         140.0184  144.2976  158.9405 C.3     1  UNL1        0.1561
      5 C         139.6396  142.9658  159.5172 C.3     1  UNL1        0.0425
      6 C         139.9948  142.6346  160.9364 C.3     1  UNL1        0.0160
      7 C         140.7288  143.6353  161.7789 C.3     1  UNL1        0.1122
      8 C         141.1076  144.9672  161.2022 C.3     1  UNL1        0.0160
      9 C         140.7524  145.2983  159.7830 C.3     1  UNL1        0.0425
     10 C         140.3294  145.5818  158.2304 C.3     1  UNL1        0.1416
     11 N         139.7930  145.4806  156.8332 N.am    1  UNL1       -0.2178
     12 C         141.0840  143.3041  163.1981 C.2     1  UNL1        0.3506
     13 N         140.1209  143.1735  164.3406 N.2     1  UNL1       -0.0350
     14 C         140.9064  142.8341  165.5726 C.2     1  UNL1        0.2348
     15 C         140.4897  142.5868  166.9922 C.2     1  UNL1        0.0869
     16 C         141.5217  142.2604  168.0307 C.2     1  UNL1        0.1468
     17 C         142.9703  142.1813  167.6496 C.2     1  UNL1        0.0200
     18 C         143.3870  142.4285  166.2300 C.3     1  UNL1        0.1068
     19 C         142.3551  142.7549  165.1915 C.2     1  UNL1        0.2176
     20 N         142.4648  143.0454  163.7240 N.2     1  UNL1       -0.0389
     21 O         141.1051  142.0132  169.4503 O.2     1  UNL1       -0.4047
     22 C         139.7852  141.3628  169.7421 C.3     1  UNL1        0.5753
     23 F         138.4654  140.7124  170.0339 F       1  UNL1       -0.1328
     24 F         140.2690  140.0946  169.1038 F       1  UNL1       -0.1328
     25 F         139.3014  142.6310  170.3804 F       1  UNL1       -0.1328
     26 C         139.8832  146.5401  155.7753 C.ar    1  UNL1        0.1029
     27 C         140.6350  146.2701  154.5057 C.ar    1  UNL1        0.0205
     28 C         140.7253  147.3296  153.4478 C.ar    1  UNL1        0.0221
     29 C         140.0638  148.6592  153.6594 C.ar    1  UNL1        0.1014
     30 N         139.3120  148.9292  154.9291 N.ar    1  UNL1       -0.2154
     31 C         139.2218  147.8696  155.9870 C.ar    1  UNL1        0.2361
     32 F         138.4699  148.1397  157.2567 F       1  UNL1       -0.1818
@<TRIPOS>BOND
     1     1     2    2
     2     2     3    1
     3     3     4    1
     4     4     5    1
     5     5     6    1
     6     6     7    1
     7     7    12    1
     8    12    13    2
     9    13    14    1
    10    14    15    2
    11    15    16    1
    12    16    21    1
    13    21    22    1
    14    22    23    1
    15    22    24    1
    16    22    25    1
    17    16    17    2
    18    17    18    1
    19    18    19    1
    20    19    20    2
    21     7     8    1
    22     8     9    1
    23     4    10    1
    24    10    11    1
    25    11    26    1
    26    26    27   ar
    27    27    28   ar
    28    28    29   ar
    29    29    30   ar
    30    30    31   ar
    31    31    32    1
    32    11     2   am
    33    31    26   ar
    34     9     4    1
    35    20    12    1
    36    19    14    1
@<TRIPOS>MOLECULE
*****
 32 36 0 0 0
SMALL
GASTEIGER

@<TRIPOS>ATOM
      1 O         143.0020  138.9570  169.1232 O.2     1  UNL1       -0.2258
      2 C         142.5902  139.5024  167.7880 C.2     1  UNL1        0.4087
      3 O         143.0195  138.9765  166.4503 O.3     1  UNL1       -0.4398
      4 C         142.3714  139.8185  165.3915 C.3     1  UNL1        0.1561
      5 C         143.2397  138.7210  164.8516 C.3     1  UNL1        0.0425
      6 C         143.3942  138.5473  163.3697 C.3     1  UNL1        0.0160
      7 C         142.6805  139.4711  162.4278 C.3     1  UNL1        0.1122
      8 C         141.8122  140.5686  162.9677 C.3     1  UNL1        0.0160
      9 C         141.6577  140.7423  164.4495 C.3     1  UNL1        0.0425
     10 C         141.5415  140.8648  166.0748 C.3     1  UNL1        0.1416
     11 N         141.6768  140.6694  167.5558 N.am    1  UNL1       -0.2178
     12 C         142.8351  139.2973  160.9459 C.2     1  UNL1        0.3506
     13 N         142.4552  138.0797  160.1565 N.2     1  UNL1       -0.0350
     14 C         142.7821  138.3406  158.7160 C.2     1  UNL1        0.2348
     15 C         142.6250  137.5007  157.4832 C.2     1  UNL1        0.0869
     16 C         143.0499  138.0397  156.1493 C.2     1  UNL1        0.1468
     17 C         143.6318  139.4185  156.0484 C.2     1  UNL1        0.0200
     18 C         143.7889  140.2584  157.2813 C.3     1  UNL1        0.1068
     19 C         143.3640  139.7195  158.6151 C.2     1  UNL1        0.2176
     20 N         143.3968  140.3107  159.9932 N.2     1  UNL1       -0.0389
     21 O         142.8928  137.1999  154.9165 O.2     1  UNL1       -0.4047
     22 C         143.1701  135.7267  154.9722 C.3     1  UNL1        0.5753
     23 F         143.4474  134.2537  155.0279 F       1  UNL1       -0.1328
     24 F         144.6194  136.0095  155.2357 F       1  UNL1       -0.1328
     25 F         141.7208  135.4439  154.7086 F       1  UNL1       -0.1328
     26 C         141.0149  141.4958  168.6182 C.ar    1  UNL1        0.1029
     27 C         141.5218  142.8749  168.9202 C.ar    1  UNL1        0.0205
     28 C         140.8598  143.7014  169.9826 C.ar    1  UNL1        0.0221
     29 C         139.6910  143.1488  170.7431 C.ar    1  UNL1        0.1014
     30 N         139.1840  141.7697  170.4411 N.ar    1  UNL1       -0.2154
     31 C         139.8460  140.9433  169.3787 C.ar    1  UNL1        0.2361
     32 F         139.3390  139.5641  169.0768 F       1  UNL1       -0.1818
@<TRIPOS>BOND
     1     1     2    2
     2     2     3    1
     3     3     4    1
     4     4     5    1
     5     5     6    1
     6     6     7    1
     7     7    12    1
     8    12    13    2
     9    13    14    1
    10    14    15    2
    11    15    16    1
    12    16    21    1
    13    21    22    1
    14    22    23    1
    15    22    24    1
    16    22    25    1
    17    16    17    2
    18    17    18    1
    19    18    19    1
    20    19    20    2
    21     7     8    1
    22     8     9    1
    23     4    10    1
    24    10    11    1
    25    11    26    1
    26    26    27   ar
    27    27    28   ar
    28    28    29   ar
    29    29    30   ar
    30    30    31   ar
    31    31    32    1
    32    11     2   am
    33    31    26   ar
    34     9     4    1
    35    20    12    1
    36    19    14    1
@<TRIPOS>MOLECULE
*****
 32 36 0 0 0
SMALL
GASTEIGER

@<TRIPOS>ATOM
      1 O         144.1608  139.6177  156.2207 O.2     1  UNL1       -0.2258
      2 C         143.6531  139.1030  157.5349 C.2     1  UNL1        0.4087
      3 O         143.7661  139.8005  158.8582 O.3     1  UNL1       -0.4398
      4 C         143.1260  138.9289  159.8978 C.3     1  UNL1        0.1561
      5 C         143.6849  140.2121  160.4373 C.3     1  UNL1        0.0425
      6 C         143.5730  140.5222  161.9006 C.3     1  UNL1        0.0160
      7 C         142.9023  139.5491  162.8243 C.3     1  UNL1        0.1122
      8 C         142.3434  138.2660  162.2848 C.3     1  UNL1        0.0160
      9 C         142.4553  137.9559  160.8215 C.3     1  UNL1        0.0425
     10 C         142.6174  137.6927  159.2170 C.3     1  UNL1        0.1416
     11 N         142.9431  137.8003  157.7568 N.am    1  UNL1       -0.2178
     12 C         142.7905  139.8593  164.2877 C.2     1  UNL1        0.3506
     13 N         142.4999  141.2046  164.8841 N.2     1  UNL1       -0.0350
     14 C         142.4794  141.0553  166.3766 C.2     1  UNL1        0.2348
     15 C         142.2436  142.0427  167.4809 C.2     1  UNL1        0.0869
     16 C         142.2858  141.5924  168.9111 C.2     1  UNL1        0.1468
     17 C         142.5637  140.1549  169.2370 C.2     1  UNL1        0.0200
     18 C         142.7995  139.1676  168.1327 C.3     1  UNL1        0.1068
     19 C         142.7574  139.6177  166.7025 C.2     1  UNL1        0.2176
     20 N         142.9496  138.8786  165.4115 N.2     1  UNL1       -0.0389
     21 O         142.0500  142.5798  170.0155 O.2     1  UNL1       -0.4047
     22 C         140.6523  142.8691  170.4771 C.3     1  UNL1        0.5753
     23 F         139.2548  143.1584  170.9387 F       1  UNL1       -0.1328
     24 F         140.7341  141.7238  171.4422 F       1  UNL1       -0.1328
     25 F         140.5706  144.0144  169.5119 F       1  UNL1       -0.1328
     26 C         142.6164  136.7838  156.7034 C.ar    1  UNL1        0.1029
     27 C         143.7155  135.9943  156.0563 C.ar    1  UNL1        0.0205
     28 C         143.3887  134.9777  155.0029 C.ar    1  UNL1        0.0221
     29 C         141.9627  134.7506  154.5964 C.ar    1  UNL1        0.1014
     30 N         140.8636  135.5401  155.2435 N.ar    1  UNL1       -0.2154
     31 C         141.1905  136.5567  156.2969 C.ar    1  UNL1        0.2361
     32 F         140.0913  137.3462  156.9440 F       1  UNL1       -0.1818
@<TRIPOS>BOND
     1     1     2    2
     2     2     3    1
     3     3     4    1
     4     4     5    1
     5     5     6    1
     6     6     7    1
     7     7    12    1
     8    12    13    2
     9    13    14    1
    10    14    15    2
    11    15    16    1
    12    16    21    1
    13    21    22    1
    14    22    23    1
    15    22    24    1
    16    22    25    1
    17    16    17    2
    18    17    18    1
    19    18    19    1
    20    19    20    2
    21     7     8    1
    22     8     9    1
    23     4    10    1
    24    10    11    1
    25    11    26    1
    26    26    27   ar
    27    27    28   ar
    28    28    29   ar
    29    29    30   ar
    30    30    31   ar
    31    31    32    1
    32    11     2   am
    33    31    26   ar
    34     9     4    1
    35    20    12    1
    36    19    14    1
@<TRIPOS>MOLECULE
*****
 32 36 0 0 0
SMALL
GASTEIGER

@<TRIPOS>ATOM
      1 O         138.0691  138.7835  168.0139 O.2     1  UNL1       -0.2258
      2 C         138.8027  139.7520  167.1342 C.2     1  UNL1        0.4087
      3 O         138.4673  140.0768  165.7087 O.3     1  UNL1       -0.4398
      4 C         139.4579  141.0912  165.2190 C.3     1  UNL1        0.1561
      5 C         138.4388  140.6895  164.1943 C.3     1  UNL1        0.0425
      6 C         138.4754  141.2954  162.8226 C.3     1  UNL1        0.0160
      7 C         139.5311  142.3030  162.4757 C.3     1  UNL1        0.1122
      8 C         140.5501  142.7047  163.5004 C.3     1  UNL1        0.0160
      9 C         140.5135  142.0988  164.8721 C.3     1  UNL1        0.0425
     10 C         140.4055  141.3933  166.3420 C.3     1  UNL1        0.1416
     11 N         140.0006  140.5657  167.5256 N.am    1  UNL1       -0.2178
     12 C         139.5676  142.9090  161.1039 C.2     1  UNL1        0.3506
     13 N         140.2473  144.1911  160.7242 N.2     1  UNL1       -0.0350
     14 C         140.0306  144.4136  159.2567 C.2     1  UNL1        0.2348
     15 C         140.4691  145.5106  158.3324 C.2     1  UNL1        0.0869
     16 C         140.0939  145.4630  156.8808 C.2     1  UNL1        0.1468
     17 C         139.2803  144.3184  156.3536 C.2     1  UNL1        0.0200
     18 C         138.8419  143.2214  157.2779 C.3     1  UNL1        0.1068
     19 C         139.2170  143.2690  158.7295 C.2     1  UNL1        0.2176
     20 N         138.9309  142.3391  159.8711 N.2     1  UNL1       -0.0389
     21 O         140.5323  146.5600  155.9565 O.2     1  UNL1       -0.4047
     22 C         139.5312  147.5507  155.4404 C.3     1  UNL1        0.5753
     23 F         138.5302  148.5415  154.9243 F       1  UNL1       -0.1328
     24 F         140.0891  147.3937  154.0569 F       1  UNL1       -0.1328
     25 F         138.9733  147.7078  156.8239 F       1  UNL1       -0.1328
     26 C         140.6750  140.5538  168.8652 C.ar    1  UNL1        0.1029
     27 C         142.1373  140.2349  168.9660 C.ar    1  UNL1        0.0205
     28 C         142.8118  140.2230  170.3057 C.ar    1  UNL1        0.0221
     29 C         142.0240  140.5299  171.5448 C.ar    1  UNL1        0.1014
     30 N         140.5617  140.8487  171.4441 N.ar    1  UNL1       -0.2154
     31 C         139.8873  140.8606  170.1043 C.ar    1  UNL1        0.2361
     32 F         138.4249  141.1795  170.0036 F       1  UNL1       -0.1818
@<TRIPOS>BOND
     1     1     2    2
     2     2     3    1
     3     3     4    1
     4     4     5    1
     5     5     6    1
     6     6     7    1
     7     7    12    1
     8    12    13    2
     9    13    14    1
    10    14    15    2
    11    15    16    1
    12    16    21    1
    13    21    22    1
    14    22    23    1
    15    22    24    1
    16    22    25    1
    17    16    17    2
    18    17    18    1
    19    18    19    1
    20    19    20    2
    21     7     8    1
    22     8     9    1
    23     4    10    1
    24    10    11    1
    25    11    26    1
    26    26    27   ar
    27    27    28   ar
    28    28    29   ar
    29    29    30   ar
    30    30    31   ar
    31    31    32    1
    32    11     2   am
    33    31    26   ar
    34     9     4    1
    35    20    12    1
    36    19    14    1
@<TRIPOS>MOLECULE
*****
 32 36 0 0 0
SMALL
GASTEIGER

@<TRIPOS>ATOM
      1 O         138.0877  139.1895  168.6405 O.2     1  UNL1       -0.2258
      2 C         138.9475  139.5178  167.4560 C.2     1  UNL1        0.4087
      3 O         138.7907  138.9622  166.0715 O.3     1  UNL1       -0.4398
      4 C         139.8614  139.5604  165.2079 C.3     1  UNL1        0.1561
      5 C         138.9575  138.6059  164.4857 C.3     1  UNL1        0.0425
      6 C         139.1720  138.3277  163.0274 C.3     1  UNL1        0.0160
      7 C         140.2904  139.0040  162.2914 C.3     1  UNL1        0.1122
      8 C         141.1944  139.9586  163.0137 C.3     1  UNL1        0.0160
      9 C         140.9799  140.2368  164.4719 C.3     1  UNL1        0.0425
     10 C         140.6800  140.4858  166.0588 C.3     1  UNL1        0.1416
     11 N         140.1152  140.4595  167.4481 N.am    1  UNL1       -0.2178
     12 C         140.5049  138.7257  160.8331 C.2     1  UNL1        0.3506
     13 N         141.7569  138.1777  160.2149 N.2     1  UNL1       -0.0350
     14 C         141.5308  138.0599  158.7367 C.2     1  UNL1        0.2348
     15 C         142.4123  137.5813  157.6215 C.2     1  UNL1        0.0869
     16 C         141.9022  137.5780  156.2109 C.2     1  UNL1        0.1468
     17 C         140.5105  138.0533  155.9156 C.2     1  UNL1        0.0200
     18 C         139.6289  138.5319  157.0308 C.3     1  UNL1        0.1068
     19 C         140.1390  138.5352  158.4413 C.2     1  UNL1        0.2176
     20 N         139.5050  138.9467  159.7370 N.2     1  UNL1       -0.0389
     21 O         142.7837  137.0994  155.0956 O.2     1  UNL1       -0.4047
     22 C         143.4602  135.7642  155.1946 C.3     1  UNL1        0.5753
     23 F         144.1368  134.4291  155.2937 F       1  UNL1       -0.1328
     24 F         144.7896  136.4473  155.3222 F       1  UNL1       -0.1328
     25 F         142.1309  135.0812  155.0671 F       1  UNL1       -0.1328
     26 C         140.6279  141.2380  168.6231 C.ar    1  UNL1        0.1029
     27 C         140.4877  142.7311  168.6524 C.ar    1  UNL1        0.0205
     28 C         141.0005  143.5097  169.8275 C.ar    1  UNL1        0.0221
     29 C         141.6535  142.7951  170.9734 C.ar    1  UNL1        0.1014
     30 N         141.7938  141.3019  170.9442 N.ar    1  UNL1       -0.2154
     31 C         141.2809  140.5234  169.7690 C.ar    1  UNL1        0.2361
     32 F         141.4212  139.0302  169.7398 F       1  UNL1       -0.1818
@<TRIPOS>BOND
     1     1     2    2
     2     2     3    1
     3     3     4    1
     4     4     5    1
     5     5     6    1
     6     6     7    1
     7     7    12    1
     8    12    13    2
     9    13    14    1
    10    14    15    2
    11    15    16    1
    12    16    21    1
    13    21    22    1
    14    22    23    1
    15    22    24    1
    16    22    25    1
    17    16    17    2
    18    17    18    1
    19    18    19    1
    20    19    20    2
    21     7     8    1
    22     8     9    1
    23     4    10    1
    24    10    11    1
    25    11    26    1
    26    26    27   ar
    27    27    28   ar
    28    28    29   ar
    29    29    30   ar
    30    30    31   ar
    31    31    32    1
    32    11     2   am
    33    31    26   ar
    34     9     4    1
    35    20    12    1
    36    19    14    1
@<TRIPOS>MOLECULE
*****
 32 36 0 0 0
SMALL
GASTEIGER

@<TRIPOS>ATOM
      1 O         138.3383  143.7173  156.3879 O.2     1  UNL1       -0.2258
      2 C         138.2478  142.7782  157.5540 C.2     1  UNL1        0.4087
      3 O         138.7361  143.0511  158.9459 O.3     1  UNL1       -0.4398
      4 C         138.4432  141.8428  159.7851 C.3     1  UNL1        0.1561
      5 C         139.1182  142.9551  160.5316 C.3     1  UNL1        0.0425
      6 C         139.4383  142.7947  161.9882 C.3     1  UNL1        0.0160
      7 C         139.0835  141.5220  162.6983 C.3     1  UNL1        0.1122
      8 C         138.4085  140.4097  161.9519 C.3     1  UNL1        0.0160
      9 C         138.0884  140.5701  160.4953 C.3     1  UNL1        0.0425
     10 C         137.7740  140.8231  158.9119 C.3     1  UNL1        0.1416
     11 N         137.6532  141.4012  157.5331 N.am    1  UNL1       -0.2178
     12 C         139.4037  141.3616  164.1550 C.2     1  UNL1        0.3506
     13 N         140.3231  142.2342  164.9570 N.2     1  UNL1       -0.0350
     14 C         140.3483  141.7123  166.3630 C.2     1  UNL1        0.2348
     15 C         141.0775  142.1710  167.5910 C.2     1  UNL1        0.0869
     16 C         140.9028  141.4344  168.8860 C.2     1  UNL1        0.1468
     17 C         139.9989  140.2392  168.9530 C.2     1  UNL1        0.0200
     18 C         139.2697  139.7805  167.7250 C.3     1  UNL1        0.1068
     19 C         139.4444  140.5170  166.4301 C.2     1  UNL1        0.2176
     20 N         138.8606  140.3003  165.0654 N.2     1  UNL1       -0.0389
     21 O         141.6320  141.8930  170.1139 O.2     1  UNL1       -0.4047
     22 C         143.0800  142.2748  170.0276 C.3     1  UNL1        0.5753
     23 F         144.5280  142.6567  169.9412 F       1  UNL1       -0.1328
     24 F         142.7360  143.6739  170.4449 F       1  UNL1       -0.1328
     25 F         143.4241  140.8758  169.6103 F       1  UNL1       -0.1328
     26 C         137.0448  140.7216  156.3424 C.ar    1  UNL1        0.1029
     27 C         135.5648  140.7976  156.1105 C.ar    1  UNL1        0.0205
     28 C         134.9563  140.1180  154.9197 C.ar    1  UNL1        0.0221
     29 C         135.8278  139.3624  153.9608 C.ar    1  UNL1        0.1014
     30 N         137.3079  139.2864  154.1927 N.ar    1  UNL1       -0.2154
     31 C         137.9163  139.9661  155.3834 C.ar    1  UNL1        0.2361
     32 F         139.3964  139.8900  155.6153 F       1  UNL1       -0.1818
@<TRIPOS>BOND
     1     1     2    2
     2     2     3    1
     3     3     4    1
     4     4     5    1
     5     5     6    1
     6     6     7    1
     7     7    12    1
     8    12    13    2
     9    13    14    1
    10    14    15    2
    11    15    16    1
    12    16    21    1
    13    21    22    1
    14    22    23    1
    15    22    24    1
    16    22    25    1
    17    16    17    2
    18    17    18    1
    19    18    19    1
    20    19    20    2
    21     7     8    1
    22     8     9    1
    23     4    10    1
    24    10    11    1
    25    11    26    1
    26    26    27   ar
    27    27    28   ar
    28    28    29   ar
    29    29    30   ar
    30    30    31   ar
    31    31    32    1
    32    11     2   am
    33    31    26   ar
    34     9     4    1
    35    20    12    1
    36    19    14    1
@<TRIPOS>MOLECULE
*****
 32 36 0 0 0
SMALL
GASTEIGER

@<TRIPOS>ATOM
      1 O         144.6516  139.2414  155.8685 O.2     1  UNL1       -0.2258
      2 C         144.4274  140.0892  157.0855 C.2     1  UNL1        0.4087
      3 O         144.1860  139.5865  158.4781 O.3     1  UNL1       -0.4398
      4 C         144.0147  140.7752  159.3768 C.3     1  UNL1        0.1561
      5 C         143.9033  139.4560  160.0820 C.3     1  UNL1        0.0425
      6 C         143.6423  139.4146  161.5585 C.3     1  UNL1        0.0160
      7 C         143.4927  140.6924  162.3298 C.3     1  UNL1        0.1122
      8 C         143.6041  142.0116  161.6246 C.3     1  UNL1        0.0160
      9 C         143.8651  142.0530  160.1481 C.3     1  UNL1        0.0425
     10 C         144.1503  142.0126  158.5397 C.3     1  UNL1        0.1416
     11 N         144.4054  141.5886  157.1237 N.am    1  UNL1       -0.2178
     12 C         143.2316  140.6510  163.8064 C.2     1  UNL1        0.3506
     13 N         142.8876  141.8250  164.6742 N.2     1  UNL1       -0.0350
     14 C         142.7122  141.3279  166.0785 C.2     1  UNL1        0.2348
     15 C         142.3683  142.0326  167.3572 C.2     1  UNL1        0.0869
     16 C         142.2601  141.2560  168.6360 C.2     1  UNL1        0.1468
     17 C         142.4957  139.7746  168.6360 C.2     1  UNL1        0.0200
     18 C         142.8396  139.0699  167.3573 C.3     1  UNL1        0.1068
     19 C         142.9478  139.8464  166.0786 C.2     1  UNL1        0.2176
     20 N         143.2689  139.4281  164.6743 N.2     1  UNL1       -0.0389
     21 O         141.9162  141.9608  169.9147 O.2     1  UNL1       -0.4047
     22 C         141.1588  143.2550  169.8774 C.3     1  UNL1        0.5753
     23 F         140.4014  144.5492  169.8402 F       1  UNL1       -0.1328
     24 F         139.9353  142.5255  169.4076 F       1  UNL1       -0.1328
     25 F         142.3823  143.9846  170.3472 F       1  UNL1       -0.1328
     26 C         144.6035  142.5034  155.9516 C.ar    1  UNL1        0.1029
     27 C         143.4489  143.2972  155.4161 C.ar    1  UNL1        0.0205
     28 C         143.6471  144.2120  154.2440 C.ar    1  UNL1        0.0221
     29 C         144.9999  144.3330  153.6074 C.ar    1  UNL1        0.1014
     30 N         146.1546  143.5392  154.1429 N.ar    1  UNL1       -0.2154
     31 C         145.9563  142.6244  155.3150 C.ar    1  UNL1        0.2361
     32 F         147.1110  141.8306  155.8505 F       1  UNL1       -0.1818
@<TRIPOS>BOND
     1     1     2    2
     2     2     3    1
     3     3     4    1
     4     4     5    1
     5     5     6    1
     6     6     7    1
     7     7    12    1
     8    12    13    2
     9    13    14    1
    10    14    15    2
    11    15    16    1
    12    16    21    1
    13    21    22    1
    14    22    23    1
    15    22    24    1
    16    22    25    1
    17    16    17    2
    18    17    18    1
    19    18    19    1
    20    19    20    2
    21     7     8    1
    22     8     9    1
    23     4    10    1
    24    10    11    1
    25    11    26    1
    26    26    27   ar
    27    27    28   ar
    28    28    29   ar
    29    29    30   ar
    30    30    31   ar
    31    31    32    1
    32    11     2   am
    33    31    26   ar
    34     9     4    1
    35    20    12    1
    36    19    14    1
@<TRIPOS>MOLECULE
*****
 32 36 0 0 0
SMALL
GASTEIGER

@<TRIPOS>ATOM
      1 O         143.6076  137.1937  156.3914 O.2     1  UNL1       -0.2258
      2 C         142.7580  137.6857  157.5255 C.2     1  UNL1        0.4087
      3 O         143.1911  137.8275  158.9547 O.3     1  UNL1       -0.4398
      4 C         142.0269  138.3517  159.7420 C.3     1  UNL1        0.1561
      5 C         143.2619  138.1190  160.5608 C.3     1  UNL1        0.0425
      6 C         143.2520  138.4099  162.0322 C.3     1  UNL1        0.0160
      7 C         142.0071  138.9335  162.6849 C.3     1  UNL1        0.1122
      8 C         140.7720  139.1661  161.8661 C.3     1  UNL1        0.0160
      9 C         140.7819  138.8752  160.3947 C.3     1  UNL1        0.0425
     10 C         140.8742  138.5339  158.7994 C.3     1  UNL1        0.1416
     11 N         141.3261  138.1223  157.4296 N.am    1  UNL1       -0.2178
     12 C         141.9972  139.2244  164.1564 C.2     1  UNL1        0.3506
     13 N         141.1437  140.2461  164.8475 N.2     1  UNL1       -0.0350
     14 C         141.4581  140.1978  166.3134 C.2     1  UNL1        0.2348
     15 C         140.9257  140.9754  167.4803 C.2     1  UNL1        0.0869
     16 C         141.4412  140.7016  168.8621 C.2     1  UNL1        0.1468
     17 C         142.4891  139.6501  169.0770 C.2     1  UNL1        0.0200
     18 C         143.0216  138.8724  167.9100 C.3     1  UNL1        0.1068
     19 C         142.5061  139.1462  166.5283 C.2     1  UNL1        0.2176
     20 N         142.8393  138.5447  165.1952 N.2     1  UNL1       -0.0389
     21 O         140.9087  141.4792  170.0290 O.2     1  UNL1       -0.4047
     22 C         140.5867  142.9362  169.8752 C.3     1  UNL1        0.5753
     23 F         140.2646  144.3931  169.7214 F       1  UNL1       -0.1328
     24 F         139.2003  142.6841  170.3894 F       1  UNL1       -0.1328
     25 F         141.9730  143.1884  169.3610 F       1  UNL1       -0.1328
     26 C         140.4925  138.1435  156.1828 C.ar    1  UNL1        0.1029
     27 C         139.8735  139.4277  155.7163 C.ar    1  UNL1        0.0205
     28 C         139.0398  139.4490  154.4694 C.ar    1  UNL1        0.0221
     29 C         138.8252  138.1861  153.6891 C.ar    1  UNL1        0.1014
     30 N         139.4442  136.9018  154.1556 N.ar    1  UNL1       -0.2154
     31 C         140.2778  136.8806  155.4025 C.ar    1  UNL1        0.2361
     32 F         140.8968  135.5963  155.8690 F       1  UNL1       -0.1818
@<TRIPOS>BOND
     1     1     2    2
     2     2     3    1
     3     3     4    1
     4     4     5    1
     5     5     6    1
     6     6     7    1
     7     7    12    1
     8    12    13    2
     9    13    14    1
    10    14    15    2
    11    15    16    1
    12    16    21    1
    13    21    22    1
    14    22    23    1
    15    22    24    1
    16    22    25    1
    17    16    17    2
    18    17    18    1
    19    18    19    1
    20    19    20    2
    21     7     8    1
    22     8     9    1
    23     4    10    1
    24    10    11    1
    25    11    26    1
    26    26    27   ar
    27    27    28   ar
    28    28    29   ar
    29    29    30   ar
    30    30    31   ar
    31    31    32    1
    32    11     2   am
    33    31    26   ar
    34     9     4    1
    35    20    12    1
    36    19    14    1
