@<TRIPOS>MOLECULE
*****
 28 31 0 0 0
SMALL
GASTEIGER

@<TRIPOS>ATOM
      1 C         141.0226  138.0435  163.1510 C.ar    1  UNL1        0.1721
      2 C         139.7471  138.1300  163.9356 C.ar    1  UNL1        0.0356
      3 C         139.7559  138.7071  165.3201 C.ar    1  UNL1       -0.0197
      4 C         141.0402  139.1977  165.9200 C.ar    1  UNL1       -0.0049
      5 C         142.3156  139.1112  165.1354 C.ar    1  UNL1        0.0371
      6 C         142.3068  138.5341  163.7509 C.ar    1  UNL1        0.1721
      7 C         141.0490  139.7748  167.3045 C.3     1  UNL1        0.0984
      8 N         139.7735  139.8613  168.0891 N.am    1  UNL1       -0.2699
      9 C         139.7823  140.4384  169.4737 C.2     1  UNL1        0.3031
     10 O         138.5068  140.5249  170.2583 O.2     1  UNL1       -0.2649
     11 C         138.4892  139.3707  167.4893 C.3     1  UNL1        0.0988
     12 C         138.4804  138.7936  166.1047 C.3     1  UNL1        0.0477
     13 C         140.6884  138.3404  160.5917 C.3     1  UNL1        0.2526
     14 O         141.0138  137.4664  161.7665 O.3     1  UNL1       -0.4684
     15 O         143.5824  138.4476  162.9663 O.3     1  UNL1       -0.4684
     16 C         143.9833  139.5737  162.0601 C.3     1  UNL1        0.2526
     17 C         142.3332  140.2654  167.9044 C.3     1  UNL1        0.0291
     18 C         142.6922  141.7195  167.8222 C.3     1  UNL1        0.0300
     19 C         142.7147  142.4124  166.4919 C.2     1  UNL1       -0.0019
     20 C         143.9339  142.6931  165.6645 C.2     1  UNL1        0.0942
     21 N         143.4946  143.4004  164.4168 N.2     1  UNL1       -0.2482
     22 C         142.0038  143.5567  164.4731 C.2     1  UNL1        0.0628
     23 C         141.0230  144.1761  163.5222 C.3     1  UNL1        0.0677
     24 C         139.5600  144.1850  163.8538 C.2     1  UNL1       -0.0380
     25 C         138.5793  144.8044  162.9029 C.3     1  UNL1        0.0268
     26 C         139.0781  143.5744  165.1363 C.2     1  UNL1       -0.0081
     27 C         140.0589  142.9549  166.0871 C.2     1  UNL1        0.0003
     28 C         141.5218  142.9461  165.7555 C.2     1  UNL1        0.0114
@<TRIPOS>BOND
     1    13    14    1
     2    14     1    1
     3     1     2   ar
     4     2     3   ar
     5     3     4   ar
     6     4     5   ar
     7     5     6   ar
     8     6    15    1
     9    15    16    1
    10     4     7    1
    11     7    17    1
    12    17    18    1
    13    18    19    1
    14    19    20    2
    15    20    21    1
    16    21    22    2
    17    22    23    1
    18    23    24    1
    19    24    25    1
    20    24    26    2
    21    26    27    1
    22    27    28    2
    23     7     8    1
    24     8     9   am
    25     9    10    2
    26     8    11    1
    27    11    12    1
    28     6     1   ar
    29    28    19    1
    30    12     3    1
    31    28    22    1
@<TRIPOS>MOLECULE
*****
 28 31 0 0 0
SMALL
GASTEIGER

@<TRIPOS>ATOM
      1 C         142.0732  140.9242  168.9330 C.ar    1  UNL1        0.1721
      2 C         142.6826  139.9950  167.9255 C.ar    1  UNL1        0.0356
      3 C         141.8866  139.5560  166.7323 C.ar    1  UNL1       -0.0197
      4 C         140.4812  140.0463  166.5467 C.ar    1  UNL1       -0.0049
      5 C         139.8718  140.9755  167.5542 C.ar    1  UNL1        0.0371
      6 C         140.6678  141.4144  168.7474 C.ar    1  UNL1        0.1721
      7 C         139.6852  139.6073  165.3535 C.3     1  UNL1        0.0984
      8 N         140.2946  138.6781  164.3459 N.am    1  UNL1       -0.2699
      9 C         139.4985  138.2391  163.1528 C.2     1  UNL1        0.3031
     10 O         140.1080  137.3099  162.1452 O.2     1  UNL1       -0.2649
     11 C         141.7000  138.1878  164.5315 C.3     1  UNL1        0.0988
     12 C         142.4960  138.6268  165.7247 C.3     1  UNL1        0.0477
     13 C         143.9771  142.3611  169.9628 C.3     1  UNL1        0.2526
     14 O         142.8692  141.3631  170.1262 O.3     1  UNL1       -0.4684
     15 O         140.0584  142.3437  169.7550 O.3     1  UNL1       -0.4684
     16 C         140.4699  143.7856  169.7906 C.3     1  UNL1        0.2526
     17 C         138.2798  140.0975  165.1679 C.3     1  UNL1        0.0291
     18 C         137.9812  141.1462  164.1377 C.3     1  UNL1        0.0300
     19 C         138.5766  142.5168  164.2683 C.2     1  UNL1       -0.0019
     20 C         137.8686  143.7419  164.7661 C.2     1  UNL1        0.0942
     21 N         138.8390  144.8851  164.7294 N.2     1  UNL1       -0.2482
     22 C         140.1468  144.3666  164.2089 C.2     1  UNL1        0.0628
     23 C         141.4643  145.0380  163.9577 C.3     1  UNL1        0.0677
     24 C         142.6197  144.2458  163.4215 C.2     1  UNL1       -0.0380
     25 C         143.9372  144.9173  163.1702 C.3     1  UNL1        0.0268
     26 C         142.4575  142.7821  163.1365 C.2     1  UNL1       -0.0081
     27 C         141.1399  142.1106  163.3877 C.2     1  UNL1        0.0003
     28 C         139.9846  142.9029  163.9240 C.2     1  UNL1        0.0114
@<TRIPOS>BOND
     1    13    14    1
     2    14     1    1
     3     1     2   ar
     4     2     3   ar
     5     3     4   ar
     6     4     5   ar
     7     5     6   ar
     8     6    15    1
     9    15    16    1
    10     4     7    1
    11     7    17    1
    12    17    18    1
    13    18    19    1
    14    19    20    2
    15    20    21    1
    16    21    22    2
    17    22    23    1
    18    23    24    1
    19    24    25    1
    20    24    26    2
    21    26    27    1
    22    27    28    2
    23     7     8    1
    24     8     9   am
    25     9    10    2
    26     8    11    1
    27    11    12    1
    28     6     1   ar
    29    28    19    1
    30    12     3    1
    31    28    22    1
@<TRIPOS>MOLECULE
*****
 28 31 0 0 0
SMALL
GASTEIGER

@<TRIPOS>ATOM
      1 C         141.0894  141.9259  168.9608 C.ar    1  UNL1        0.1721
      2 C         140.6916  142.8080  167.8146 C.ar    1  UNL1        0.0356
      3 C         139.9354  142.2336  166.6535 C.ar    1  UNL1       -0.0197
      4 C         139.5770  140.7772  166.6385 C.ar    1  UNL1       -0.0049
      5 C         139.9748  139.8951  167.7846 C.ar    1  UNL1        0.0371
      6 C         140.7310  140.4695  168.9457 C.ar    1  UNL1        0.1721
      7 C         138.8208  140.2028  165.4773 C.3     1  UNL1        0.0984
      8 N         138.4230  141.0848  164.3312 N.am    1  UNL1       -0.2699
      9 C         137.6668  140.5105  163.1700 C.2     1  UNL1        0.3031
     10 O         137.2690  141.3926  162.0238 O.2     1  UNL1       -0.2649
     11 C         138.7814  142.5414  164.3461 C.3     1  UNL1        0.0988
     12 C         139.5376  143.1158  165.5073 C.3     1  UNL1        0.0477
     13 C         143.3426  142.5823  170.0753 C.3     1  UNL1        0.2526
     14 O         141.8456  142.5003  170.1219 O.3     1  UNL1       -0.4684
     15 O         141.1288  139.5873  170.0919 O.3     1  UNL1       -0.4684
     16 C         142.4622  138.9005  170.0820 C.3     1  UNL1        0.2526
     17 C         138.4624  138.7463  165.4623 C.3     1  UNL1        0.0291
     18 C         139.4599  137.7334  164.9837 C.3     1  UNL1        0.0300
     19 C         140.4322  138.0925  163.8993 C.2     1  UNL1       -0.0019
     20 C         140.2884  137.7657  162.4425 C.2     1  UNL1        0.0942
     21 N         141.4863  138.3127  161.7243 N.2     1  UNL1       -0.2482
     22 C         142.3704  138.9777  162.7373 C.2     1  UNL1        0.0628
     23 C         143.6845  139.6895  162.6094 C.3     1  UNL1        0.0677
     24 C         144.3472  140.2653  163.8257 C.2     1  UNL1       -0.0380
     25 C         145.6612  140.9771  163.6978 C.3     1  UNL1        0.0268
     26 C         143.6957  140.1292  165.1699 C.2     1  UNL1       -0.0081
     27 C         142.3815  139.4174  165.2979 C.2     1  UNL1        0.0003
     28 C         141.7189  138.8416  164.0815 C.2     1  UNL1        0.0114
@<TRIPOS>BOND
     1    13    14    1
     2    14     1    1
     3     1     2   ar
     4     2     3   ar
     5     3     4   ar
     6     4     5   ar
     7     5     6   ar
     8     6    15    1
     9    15    16    1
    10     4     7    1
    11     7    17    1
    12    17    18    1
    13    18    19    1
    14    19    20    2
    15    20    21    1
    16    21    22    2
    17    22    23    1
    18    23    24    1
    19    24    25    1
    20    24    26    2
    21    26    27    1
    22    27    28    2
    23     7     8    1
    24     8     9   am
    25     9    10    2
    26     8    11    1
    27    11    12    1
    28     6     1   ar
    29    28    19    1
    30    12     3    1
    31    28    22    1
@<TRIPOS>MOLECULE
*****
 28 31 0 0 0
SMALL
GASTEIGER

@<TRIPOS>ATOM
      1 C         142.2744  142.0643  167.2605 C.ar    1  UNL1        0.1721
      2 C         143.0132  142.3111  165.9787 C.ar    1  UNL1        0.0356
      3 C         142.3472  143.0572  164.8608 C.ar    1  UNL1       -0.0197
      4 C         140.9424  143.5567  165.0248 C.ar    1  UNL1       -0.0049
      5 C         140.2035  143.3099  166.3066 C.ar    1  UNL1        0.0371
      6 C         140.8696  142.5637  167.4245 C.ar    1  UNL1        0.1721
      7 C         140.2764  144.3028  163.9069 C.3     1  UNL1        0.0984
      8 N         141.0152  144.5496  162.6250 N.am    1  UNL1       -0.2699
      9 C         140.3492  145.2958  161.5072 C.2     1  UNL1        0.3031
     10 O         141.0881  145.5426  160.2253 O.2     1  UNL1       -0.2649
     11 C         142.4201  144.0502  162.4610 C.3     1  UNL1        0.0988
     12 C         143.0862  143.3040  163.5789 C.3     1  UNL1        0.0477
     13 C         142.6243  139.8697  168.6063 C.3     1  UNL1        0.2526
     14 O         142.9404  141.3181  168.3784 O.3     1  UNL1       -0.4684
     15 O         140.1306  142.3169  168.7064 O.3     1  UNL1       -0.4684
     16 C         140.2821  143.2699  169.8547 C.3     1  UNL1        0.2526
     17 C         138.8715  144.8023  164.0708 C.3     1  UNL1        0.0291
     18 C         137.7230  144.0002  163.5345 C.3     1  UNL1        0.0300
     19 C         137.9689  142.6494  162.9303 C.2     1  UNL1       -0.0019
     20 C         138.0515  142.3409  161.4647 C.2     1  UNL1        0.0942
     21 N         138.3090  140.8708  161.3143 N.2     1  UNL1       -0.2482
     22 C         138.3856  140.2708  162.6870 C.2     1  UNL1        0.0628
     23 C         138.6197  138.8656  163.1565 C.3     1  UNL1        0.0677
     24 C         138.6435  138.5595  164.6248 C.2     1  UNL1       -0.0380
     25 C         138.8775  137.1544  165.0943 C.3     1  UNL1        0.0268
     26 C         138.4333  139.6588  165.6235 C.2     1  UNL1       -0.0081
     27 C         138.1993  141.0641  165.1540 C.2     1  UNL1        0.0003
     28 C         138.1755  141.3701  163.6857 C.2     1  UNL1        0.0114
@<TRIPOS>BOND
     1    13    14    1
     2    14     1    1
     3     1     2   ar
     4     2     3   ar
     5     3     4   ar
     6     4     5   ar
     7     5     6   ar
     8     6    15    1
     9    15    16    1
    10     4     7    1
    11     7    17    1
    12    17    18    1
    13    18    19    1
    14    19    20    2
    15    20    21    1
    16    21    22    2
    17    22    23    1
    18    23    24    1
    19    24    25    1
    20    24    26    2
    21    26    27    1
    22    27    28    2
    23     7     8    1
    24     8     9   am
    25     9    10    2
    26     8    11    1
    27    11    12    1
    28     6     1   ar
    29    28    19    1
    30    12     3    1
    31    28    22    1
@<TRIPOS>MOLECULE
*****
 28 31 0 0 0
SMALL
GASTEIGER

@<TRIPOS>ATOM
      1 C         138.7687  144.2898  163.0339 C.ar    1  UNL1        0.1721
      2 C         139.3643  144.4243  164.4039 C.ar    1  UNL1        0.0356
      3 C         139.4482  143.2289  165.3060 C.ar    1  UNL1       -0.0197
      4 C         138.9363  141.8988  164.8381 C.ar    1  UNL1       -0.0049
      5 C         138.3406  141.7643  163.4681 C.ar    1  UNL1        0.0371
      6 C         138.2568  142.9598  162.5660 C.ar    1  UNL1        0.1721
      7 C         139.0201  140.7034  165.7402 C.3     1  UNL1        0.0984
      8 N         139.6158  140.8379  167.1103 N.am    1  UNL1       -0.2699
      9 C         139.6996  139.6424  168.0124 C.2     1  UNL1        0.3031
     10 O         140.2954  139.7771  169.3825 O.2     1  UNL1       -0.2649
     11 C         140.1277  142.1680  167.5782 C.3     1  UNL1        0.0988
     12 C         140.0439  143.3635  166.6761 C.3     1  UNL1        0.0477
     13 C         139.9351  146.0733  161.5478 C.3     1  UNL1        0.2526
     14 O         138.6848  145.4853  162.1318 O.3     1  UNL1       -0.4684
     15 O         137.6611  142.8252  161.1959 O.3     1  UNL1       -0.4684
     16 C         138.5452  142.5391  160.0184 C.3     1  UNL1        0.2526
     17 C         138.5083  139.3733  165.2723 C.3     1  UNL1        0.0291
     18 C         139.4594  138.2299  165.0778 C.3     1  UNL1        0.0300
     19 C         140.5540  138.3302  164.0569 C.2     1  UNL1       -0.0019
     20 C         140.5918  137.6267  162.7327 C.2     1  UNL1        0.0942
     21 N         141.8640  138.0133  162.0386 N.2     1  UNL1       -0.2482
     22 C         142.6126  138.9559  162.9338 C.2     1  UNL1        0.0628
     23 C         143.9267  139.6611  162.7742 C.3     1  UNL1        0.0677
     24 C         144.4313  140.5622  163.8621 C.2     1  UNL1       -0.0380
     25 C         145.7455  141.2674  163.7026 C.3     1  UNL1        0.0268
     26 C         143.6217  140.7581  165.1095 C.2     1  UNL1       -0.0081
     27 C         142.3074  140.0528  165.2691 C.2     1  UNL1        0.0003
     28 C         141.8029  139.1517  164.1812 C.2     1  UNL1        0.0114
@<TRIPOS>BOND
     1    13    14    1
     2    14     1    1
     3     1     2   ar
     4     2     3   ar
     5     3     4   ar
     6     4     5   ar
     7     5     6   ar
     8     6    15    1
     9    15    16    1
    10     4     7    1
    11     7    17    1
    12    17    18    1
    13    18    19    1
    14    19    20    2
    15    20    21    1
    16    21    22    2
    17    22    23    1
    18    23    24    1
    19    24    25    1
    20    24    26    2
    21    26    27    1
    22    27    28    2
    23     7     8    1
    24     8     9   am
    25     9    10    2
    26     8    11    1
    27    11    12    1
    28     6     1   ar
    29    28    19    1
    30    12     3    1
    31    28    22    1
@<TRIPOS>MOLECULE
*****
 28 31 0 0 0
SMALL
GASTEIGER

@<TRIPOS>ATOM
      1 C         142.5311  141.5613  167.8588 C.ar    1  UNL1        0.1721
      2 C         143.1863  141.7847  166.5282 C.ar    1  UNL1        0.0356
      3 C         142.9738  140.8038  165.4134 C.ar    1  UNL1       -0.0197
      4 C         142.1060  139.5995  165.6293 C.ar    1  UNL1       -0.0049
      5 C         141.4508  139.3761  166.9600 C.ar    1  UNL1        0.0371
      6 C         141.6633  140.3570  168.0748 C.ar    1  UNL1        0.1721
      7 C         141.8935  138.6186  164.5146 C.3     1  UNL1        0.0984
      8 N         142.5488  138.8420  163.1839 N.am    1  UNL1       -0.2699
      9 C         142.3363  137.8611  162.0692 C.2     1  UNL1        0.3031
     10 O         142.9916  138.0846  160.7384 O.2     1  UNL1       -0.2649
     11 C         143.4166  140.0463  162.9680 C.3     1  UNL1        0.0988
     12 C         143.6291  141.0272  164.0827 C.3     1  UNL1        0.0477
     13 C         143.9579  142.4330  169.8474 C.3     1  UNL1        0.2526
     14 O         142.7436  142.5422  168.9736 O.3     1  UNL1       -0.4684
     15 O         141.0080  140.1336  169.4055 O.3     1  UNL1       -0.4684
     16 C         139.5996  140.5958  169.6349 C.3     1  UNL1        0.2526
     17 C         141.0258  137.4144  164.7305 C.3     1  UNL1        0.0291
     18 C         139.5325  137.5476  164.6827 C.3     1  UNL1        0.0300
     19 C         138.8913  138.4382  163.6599 C.2     1  UNL1       -0.0019
     20 C         138.3866  138.0130  162.3129 C.2     1  UNL1        0.0942
     21 N         137.8257  139.2223  161.6252 N.2     1  UNL1       -0.2482
     22 C         137.9838  140.3949  162.5472 C.2     1  UNL1        0.0628
     23 C         137.6131  141.8412  162.4041 C.3     1  UNL1        0.0677
     24 C         137.9010  142.8031  163.5186 C.2     1  UNL1       -0.0380
     25 C         137.5304  144.2495  163.3755 C.3     1  UNL1        0.0268
     26 C         138.5596  142.3185  164.7761 C.2     1  UNL1       -0.0081
     27 C         138.9303  140.8721  164.9192 C.2     1  UNL1        0.0003
     28 C         138.6424  139.9103  163.8047 C.2     1  UNL1        0.0114
@<TRIPOS>BOND
     1    13    14    1
     2    14     1    1
     3     1     2   ar
     4     2     3   ar
     5     3     4   ar
     6     4     5   ar
     7     5     6   ar
     8     6    15    1
     9    15    16    1
    10     4     7    1
    11     7    17    1
    12    17    18    1
    13    18    19    1
    14    19    20    2
    15    20    21    1
    16    21    22    2
    17    22    23    1
    18    23    24    1
    19    24    25    1
    20    24    26    2
    21    26    27    1
    22    27    28    2
    23     7     8    1
    24     8     9   am
    25     9    10    2
    26     8    11    1
    27    11    12    1
    28     6     1   ar
    29    28    19    1
    30    12     3    1
    31    28    22    1
@<TRIPOS>MOLECULE
*****
 28 31 0 0 0
SMALL
GASTEIGER

@<TRIPOS>ATOM
      1 C         144.0507  141.6477  164.2223 C.ar    1  UNL1        0.1721
      2 C         143.8479  142.2155  162.8489 C.ar    1  UNL1        0.0356
      3 C         142.7526  143.2104  162.6028 C.ar    1  UNL1       -0.0197
      4 C         141.8602  143.6376  163.7302 C.ar    1  UNL1       -0.0049
      5 C         142.0630  143.0698  165.1037 C.ar    1  UNL1        0.0371
      6 C         143.1583  142.0749  165.3497 C.ar    1  UNL1        0.1721
      7 C         140.7649  144.6325  163.4841 C.3     1  UNL1        0.0984
      8 N         140.5621  145.2002  162.1107 N.am    1  UNL1       -0.2699
      9 C         139.4668  146.1951  161.8646 C.2     1  UNL1        0.3031
     10 O         139.2640  146.7629  160.4910 O.2     1  UNL1       -0.2649
     11 C         141.4545  144.7731  160.9832 C.3     1  UNL1        0.0988
     12 C         142.5498  143.7782  161.2292 C.3     1  UNL1        0.0477
     13 C         144.8382  139.1848  164.4744 C.3     1  UNL1        0.2526
     14 O         145.1460  140.6528  164.4684 O.3     1  UNL1       -0.4684
     15 O         143.3611  141.5071  166.7233 O.3     1  UNL1       -0.4684
     16 C         142.6362  142.1005  167.8947 C.3     1  UNL1        0.2526
     17 C         139.8725  145.0596  164.6115 C.3     1  UNL1        0.0291
     18 C         138.5498  144.3832  164.8187 C.3     1  UNL1        0.0300
     19 C         138.2271  143.1226  164.0725 C.2     1  UNL1       -0.0019
     20 C         137.5542  143.0377  162.7346 C.2     1  UNL1        0.0942
     21 N         137.4319  141.5882  162.3684 N.2     1  UNL1       -0.2482
     22 C         138.0292  140.7772  163.4801 C.2     1  UNL1        0.0628
     23 C         138.1891  139.2979  163.6693 C.3     1  UNL1        0.0677
     24 C         138.8404  138.7668  164.9118 C.2     1  UNL1       -0.0380
     25 C         139.0003  137.2875  165.1011 C.3     1  UNL1        0.0268
     26 C         139.3319  139.7151  165.9650 C.2     1  UNL1       -0.0081
     27 C         139.1720  141.1945  165.7756 C.2     1  UNL1        0.0003
     28 C         138.5207  141.7256  164.5332 C.2     1  UNL1        0.0114
@<TRIPOS>BOND
     1    13    14    1
     2    14     1    1
     3     1     2   ar
     4     2     3   ar
     5     3     4   ar
     6     4     5   ar
     7     5     6   ar
     8     6    15    1
     9    15    16    1
    10     4     7    1
    11     7    17    1
    12    17    18    1
    13    18    19    1
    14    19    20    2
    15    20    21    1
    16    21    22    2
    17    22    23    1
    18    23    24    1
    19    24    25    1
    20    24    26    2
    21    26    27    1
    22    27    28    2
    23     7     8    1
    24     8     9   am
    25     9    10    2
    26     8    11    1
    27    11    12    1
    28     6     1   ar
    29    28    19    1
    30    12     3    1
    31    28    22    1
@<TRIPOS>MOLECULE
*****
 28 31 0 0 0
SMALL
GASTEIGER

@<TRIPOS>ATOM
      1 C         140.4946  140.7718  169.4052 C.ar    1  UNL1        0.1721
      2 C         139.5219  140.2039  168.4146 C.ar    1  UNL1        0.0356
      3 C         140.0188  139.6233  167.1238 C.ar    1  UNL1       -0.0197
      4 C         141.4884  139.6108  166.8236 C.ar    1  UNL1       -0.0049
      5 C         142.4610  140.1788  167.8142 C.ar    1  UNL1        0.0371
      6 C         141.9642  140.7593  169.1049 C.ar    1  UNL1        0.1721
      7 C         141.9853  139.0303  165.5328 C.3     1  UNL1        0.0984
      8 N         141.0126  138.4623  164.5423 N.am    1  UNL1       -0.2699
      9 C         141.5095  137.8818  163.2515 C.2     1  UNL1        0.3031
     10 O         140.5367  137.3138  162.2609 O.2     1  UNL1       -0.2649
     11 C         139.5429  138.4748  164.8425 C.3     1  UNL1        0.0988
     12 C         139.0460  139.0553  166.1332 C.3     1  UNL1        0.0477
     13 C         139.7565  142.8283  170.8108 C.3     1  UNL1        0.2526
     14 O         139.9977  141.3524  170.6959 O.3     1  UNL1       -0.4684
     15 O         142.9369  141.3273  170.0955 O.3     1  UNL1       -0.4684
     16 C         143.8128  142.4820  169.7090 C.3     1  UNL1        0.2526
     17 C         143.4548  139.0178  165.2326 C.3     1  UNL1        0.0291
     18 C         144.0255  139.9853  164.2385 C.3     1  UNL1        0.0300
     19 C         143.7675  141.4552  164.3894 C.2     1  UNL1       -0.0019
     20 C         144.7136  142.4609  164.9755 C.2     1  UNL1        0.0942
     21 N         144.0489  143.8047  164.9289 N.2     1  UNL1       -0.2482
     22 C         142.6919  143.6297  164.3139 C.2     1  UNL1        0.0628
     23 C         141.5923  144.6048  164.0145 C.3     1  UNL1        0.0677
     24 C         140.3186  144.1280  163.3816 C.2     1  UNL1       -0.0380
     25 C         139.2190  145.1031  163.0822 C.3     1  UNL1        0.0268
     26 C         140.1448  142.6759  163.0481 C.2     1  UNL1       -0.0081
     27 C         141.2445  141.7007  163.3476 C.2     1  UNL1        0.0003
     28 C         142.5181  142.1776  163.9805 C.2     1  UNL1        0.0114
@<TRIPOS>BOND
     1    13    14    1
     2    14     1    1
     3     1     2   ar
     4     2     3   ar
     5     3     4   ar
     6     4     5   ar
     7     5     6   ar
     8     6    15    1
     9    15    16    1
    10     4     7    1
    11     7    17    1
    12    17    18    1
    13    18    19    1
    14    19    20    2
    15    20    21    1
    16    21    22    2
    17    22    23    1
    18    23    24    1
    19    24    25    1
    20    24    26    2
    21    26    27    1
    22    27    28    2
    23     7     8    1
    24     8     9   am
    25     9    10    2
    26     8    11    1
    27    11    12    1
    28     6     1   ar
    29    28    19    1
    30    12     3    1
    31    28    22    1
@<TRIPOS>MOLECULE
*****
 28 31 0 0 0
SMALL
GASTEIGER

@<TRIPOS>ATOM
      1 C         141.4810  141.8775  168.8518 C.ar    1  UNL1        0.1721
      2 C         141.1398  142.7409  167.6737 C.ar    1  UNL1        0.0356
      3 C         140.2453  142.2135  166.5913 C.ar    1  UNL1       -0.0197
      4 C         139.6919  140.8226  166.6870 C.ar    1  UNL1       -0.0049
      5 C         140.0331  139.9592  167.8652 C.ar    1  UNL1        0.0371
      6 C         140.9276  140.4867  168.9476 C.ar    1  UNL1        0.1721
      7 C         138.7973  140.2952  165.6046 C.3     1  UNL1        0.0984
      8 N         138.4562  141.1586  164.4265 N.am    1  UNL1       -0.2699
      9 C         137.5616  140.6312  163.3441 C.2     1  UNL1        0.3031
     10 O         137.2205  141.4947  162.1659 O.2     1  UNL1       -0.2649
     11 C         139.0096  142.5496  164.3307 C.3     1  UNL1        0.0988
     12 C         139.9041  143.0770  165.4131 C.3     1  UNL1        0.0477
     13 C         143.8655  142.3444  169.7717 C.3     1  UNL1        0.2526
     14 O         142.3756  142.4050  169.9342 O.3     1  UNL1       -0.4684
     15 O         141.2688  139.6232  170.1258 O.3     1  UNL1       -0.4684
     16 C         142.5253  138.8041  170.1165 C.3     1  UNL1        0.2526
     17 C         138.2439  138.9043  165.7004 C.3     1  UNL1        0.0291
     18 C         138.9153  137.7782  164.9716 C.3     1  UNL1        0.0300
     19 C         140.2641  137.9862  164.3491 C.2     1  UNL1       -0.0019
     20 C         141.5712  138.0601  165.0813 C.2     1  UNL1        0.0942
     21 N         142.6575  138.2763  164.0698 N.2     1  UNL1       -0.2482
     22 C         142.0218  138.3361  162.7124 C.2     1  UNL1        0.0628
     23 C         142.5988  138.5307  161.3416 C.3     1  UNL1        0.0677
     24 C         141.6965  138.5459  160.1433 C.2     1  UNL1       -0.0380
     25 C         142.2735  138.7404  158.7725 C.3     1  UNL1        0.0268
     26 C         140.2174  138.3665  160.3160 C.2     1  UNL1       -0.0081
     27 C         139.6404  138.1720  161.6869 C.2     1  UNL1        0.0003
     28 C         140.5427  138.1568  162.8851 C.2     1  UNL1        0.0114
@<TRIPOS>BOND
     1    13    14    1
     2    14     1    1
     3     1     2   ar
     4     2     3   ar
     5     3     4   ar
     6     4     5   ar
     7     5     6   ar
     8     6    15    1
     9    15    16    1
    10     4     7    1
    11     7    17    1
    12    17    18    1
    13    18    19    1
    14    19    20    2
    15    20    21    1
    16    21    22    2
    17    22    23    1
    18    23    24    1
    19    24    25    1
    20    24    26    2
    21    26    27    1
    22    27    28    2
    23     7     8    1
    24     8     9   am
    25     9    10    2
    26     8    11    1
    27    11    12    1
    28     6     1   ar
    29    28    19    1
    30    12     3    1
    31    28    22    1
