@<TRIPOS>MOLECULE
*****
 30 33 0 0 0
SMALL
GASTEIGER

@<TRIPOS>ATOM
      1 C         138.8536  140.0316  164.1958 C.ar    1  UNL1        0.1090
      2 C         138.4771  139.8129  165.6313 C.ar    1  UNL1        0.0761
      3 C         139.5236  139.8988  166.7026 C.ar    1  UNL1        0.2276
      4 N         140.9465  140.2034  166.3383 N.ar    1  UNL1       -0.1910
      5 C         141.3229  140.4221  164.9029 C.ar    1  UNL1        0.1829
      6 N         140.2765  140.3362  163.8317 N.ar    1  UNL1       -0.2257
      7 C         142.7457  140.7267  164.5388 C.ar    1  UNL1        0.1171
      8 C         143.7821  139.6437  164.5929 C.ar    1  UNL1        0.0223
      9 C         145.2050  139.9483  164.2287 C.ar    1  UNL1        0.0032
     10 C         145.5915  141.3360  163.8105 C.ar    1  UNL1        0.0207
     11 C         144.5552  142.4190  163.7563 C.ar    1  UNL1        0.0989
     12 N         143.1323  142.1144  164.1205 N.ar    1  UNL1       -0.2407
     13 C         137.8072  139.9457  163.1246 C.3     1  UNL1        0.2511
     14 O         137.2111  141.1993  162.5562 O.3     1  UNL1       -0.4666
     15 F         140.4067  146.2770  162.4864 F       1  UNL1       -0.2017
     16 C         139.6078  145.0075  162.5039 C.ar    1  UNL1        0.1698
     17 C         139.5534  144.1388  161.2823 C.ar    1  UNL1        0.0352
     18 C         138.7545  142.8694  161.2997 C.ar    1  UNL1        0.0417
     19 C         138.0100  142.4687  162.5387 C.ar    1  UNL1        0.1688
     20 C         138.0644  143.3374  163.7603 C.ar    1  UNL1        0.2033
     21 F         137.3199  142.9368  164.9994 F       1  UNL1       -0.1985
     22 C         138.8633  144.6069  163.7429 C.ar    1  UNL1        0.1976
     23 F         138.9177  145.4756  164.9645 F       1  UNL1       -0.1993
     24 O         139.1471  139.6802  168.1380 O.3     1  UNL1       -0.4571
     25 C         140.0905  140.0867  169.2311 C.3     1  UNL1        0.2444
     26 C         139.9006  141.3965  169.9370 C.3     1  UNL1        0.2277
     27 F         138.4472  141.0810  170.1315 F       1  UNL1       -0.2309
     28 C         141.3541  141.7121  169.7425 C.3     1  UNL1        0.1809
     29 O         141.1642  143.0219  170.4483 O.3     1  UNL1       -0.3477
     30 C         139.7108  142.7063  170.6428 C.3     1  UNL1        0.1809
@<TRIPOS>BOND
     1    15    16    1
     2    16    17   ar
     3    17    18   ar
     4    18    19   ar
     5    19    14    1
     6    14    13    1
     7    13     1    1
     8     1     2   ar
     9     2     3   ar
    10     3    24    1
    11    24    25    1
    12    25    26    1
    13    26    27    1
    14    26    28    1
    15    28    29    1
    16    29    30    1
    17     3     4   ar
    18     4     5   ar
    19     5     7    1
    20     7     8   ar
    21     8     9   ar
    22     9    10   ar
    23    10    11   ar
    24    11    12   ar
    25     5     6   ar
    26    19    20   ar
    27    20    21    1
    28    20    22   ar
    29    22    23    1
    30    22    16   ar
    31     6     1   ar
    32    30    26    1
    33    12     7   ar
@<TRIPOS>MOLECULE
*****
 30 33 0 0 0
SMALL
GASTEIGER

@<TRIPOS>ATOM
      1 C         138.8463  140.1995  164.4979 C.ar    1  UNL1        0.1090
      2 C         138.5109  139.8460  165.9166 C.ar    1  UNL1        0.0761
      3 C         139.5829  139.8566  166.9657 C.ar    1  UNL1        0.2276
      4 N         140.9904  140.2209  166.5961 N.ar    1  UNL1       -0.1910
      5 C         141.3257  140.5744  165.1775 C.ar    1  UNL1        0.1829
      6 N         140.2537  140.5638  164.1284 N.ar    1  UNL1       -0.2257
      7 C         142.7331  140.9387  164.8080 C.ar    1  UNL1        0.1171
      8 C         143.2202  142.3438  165.0039 C.ar    1  UNL1        0.0223
      9 C         144.6277  142.7080  164.6344 C.ar    1  UNL1        0.0032
     10 C         145.5479  141.6671  164.0690 C.ar    1  UNL1        0.0207
     11 C         145.0608  140.2620  163.8731 C.ar    1  UNL1        0.0989
     12 N         143.6534  139.8978  164.2426 N.ar    1  UNL1       -0.2407
     13 C         137.7743  140.1889  163.4488 C.3     1  UNL1        0.2511
     14 O         137.1043  141.4697  163.0480 O.3     1  UNL1       -0.4666
     15 F         140.3598  146.4556  162.3113 F       1  UNL1       -0.2017
     16 C         139.5459  145.2091  162.4955 C.ar    1  UNL1        0.1698
     17 C         138.8828  144.9341  163.8125 C.ar    1  UNL1        0.0352
     18 C         138.0690  143.6876  163.9967 C.ar    1  UNL1        0.0417
     19 C         137.9181  142.7161  162.8639 C.ar    1  UNL1        0.1688
     20 C         138.5812  142.9911  161.5468 C.ar    1  UNL1        0.2033
     21 F         138.4304  142.0196  160.4138 F       1  UNL1       -0.1985
     22 C         139.3951  144.2376  161.3626 C.ar    1  UNL1        0.1976
     23 F         140.0582  144.5126  160.0455 F       1  UNL1       -0.1993
     24 O         139.2476  139.5031  168.3843 O.3     1  UNL1       -0.4571
     25 C         139.2571  140.5645  169.4441 C.3     1  UNL1        0.2444
     26 C         140.4927  140.7962  170.2625 C.3     1  UNL1        0.2277
     27 F         140.8693  139.3531  170.1023 F       1  UNL1       -0.2309
     28 C         140.1160  142.2392  170.4227 C.3     1  UNL1        0.1809
     29 O         141.3516  142.4708  171.2410 O.3     1  UNL1       -0.3477
     30 C         141.7282  141.0278  171.0808 C.3     1  UNL1        0.1809
@<TRIPOS>BOND
     1    15    16    1
     2    16    17   ar
     3    17    18   ar
     4    18    19   ar
     5    19    14    1
     6    14    13    1
     7    13     1    1
     8     1     2   ar
     9     2     3   ar
    10     3    24    1
    11    24    25    1
    12    25    26    1
    13    26    27    1
    14    26    28    1
    15    28    29    1
    16    29    30    1
    17     3     4   ar
    18     4     5   ar
    19     5     7    1
    20     7     8   ar
    21     8     9   ar
    22     9    10   ar
    23    10    11   ar
    24    11    12   ar
    25     5     6   ar
    26    19    20   ar
    27    20    21    1
    28    20    22   ar
    29    22    23    1
    30    22    16   ar
    31     6     1   ar
    32    30    26    1
    33    12     7   ar
@<TRIPOS>MOLECULE
*****
 30 33 0 0 0
SMALL
GASTEIGER

@<TRIPOS>ATOM
      1 C         143.5442  140.5546  163.3197 C.ar    1  UNL1        0.1090
      2 C         143.0302  141.8218  162.7033 C.ar    1  UNL1        0.0761
      3 C         142.4932  142.9166  163.5769 C.ar    1  UNL1        0.2276
      4 N         142.4702  142.7441  165.0668 N.ar    1  UNL1       -0.1910
      5 C         142.9842  141.4769  165.6831 C.ar    1  UNL1        0.1829
      6 N         143.5212  140.3821  164.8096 N.ar    1  UNL1       -0.2257
      7 C         142.9612  141.3045  167.1729 C.ar    1  UNL1        0.1171
      8 C         142.5785  139.9823  167.7691 C.ar    1  UNL1        0.0223
      9 C         142.5556  139.8099  169.2590 C.ar    1  UNL1        0.0032
     10 C         142.9152  140.9596  170.1527 C.ar    1  UNL1        0.0207
     11 C         143.2979  142.2818  169.5565 C.ar    1  UNL1        0.0989
     12 N         143.3209  142.4542  168.0667 N.ar    1  UNL1       -0.2407
     13 C         144.0812  139.4598  162.4462 C.3     1  UNL1        0.2511
     14 O         143.3804  138.1349  162.3879 O.3     1  UNL1       -0.4666
     15 F         137.4071  137.9212  161.8635 F       1  UNL1       -0.2017
     16 C         138.9004  137.9746  161.9946 C.ar    1  UNL1        0.1698
     17 C         139.7446  138.3427  160.8106 C.ar    1  UNL1        0.0352
     18 C         141.2379  138.3961  160.9417 C.ar    1  UNL1        0.0417
     19 C         141.8871  138.0815  162.2568 C.ar    1  UNL1        0.1688
     20 C         141.0429  137.7134  163.4408 C.ar    1  UNL1        0.2033
     21 F         141.6921  137.3987  164.7560 F       1  UNL1       -0.1985
     22 C         139.5496  137.6600  163.3097 C.ar    1  UNL1        0.1976
     23 F         138.7054  137.2919  164.4938 F       1  UNL1       -0.1993
     24 O         141.9792  144.1839  162.9605 O.3     1  UNL1       -0.4571
     25 C         141.0422  145.0663  163.7310 C.3     1  UNL1        0.2444
     26 C         139.5823  144.7291  163.8020 C.3     1  UNL1        0.2277
     27 F         139.7407  144.3467  165.2437 F       1  UNL1       -0.2309
     28 C         139.4239  145.1115  162.3602 C.3     1  UNL1        0.1809
     29 O         137.9640  144.7743  162.4312 O.3     1  UNL1       -0.3477
     30 C         138.1225  144.3919  163.8730 C.3     1  UNL1        0.1809
@<TRIPOS>BOND
     1    15    16    1
     2    16    17   ar
     3    17    18   ar
     4    18    19   ar
     5    19    14    1
     6    14    13    1
     7    13     1    1
     8     1     2   ar
     9     2     3   ar
    10     3    24    1
    11    24    25    1
    12    25    26    1
    13    26    27    1
    14    26    28    1
    15    28    29    1
    16    29    30    1
    17     3     4   ar
    18     4     5   ar
    19     5     7    1
    20     7     8   ar
    21     8     9   ar
    22     9    10   ar
    23    10    11   ar
    24    11    12   ar
    25     5     6   ar
    26    19    20   ar
    27    20    21    1
    28    20    22   ar
    29    22    23    1
    30    22    16   ar
    31     6     1   ar
    32    30    26    1
    33    12     7   ar
@<TRIPOS>MOLECULE
*****
 30 33 0 0 0
SMALL
GASTEIGER

@<TRIPOS>ATOM
      1 C         139.3885  139.8996  166.2117 C.ar    1  UNL1        0.1090
      2 C         140.4962  139.9915  167.2190 C.ar    1  UNL1        0.0761
      3 C         141.3952  141.1921  167.2377 C.ar    1  UNL1        0.2276
      4 N         141.1865  142.3008  166.2490 N.ar    1  UNL1       -0.1910
      5 C         140.0789  142.2089  165.2418 C.ar    1  UNL1        0.1829
      6 N         139.1799  141.0083  165.2231 N.ar    1  UNL1       -0.2257
      7 C         139.8702  143.3175  164.2532 C.ar    1  UNL1        0.1171
      8 C         138.4845  143.6615  163.7934 C.ar    1  UNL1        0.0223
      9 C         138.2759  144.7702  162.8048 C.ar    1  UNL1        0.0032
     10 C         139.4530  145.5349  162.2761 C.ar    1  UNL1        0.0207
     11 C         140.8387  145.1910  162.7359 C.ar    1  UNL1        0.0989
     12 N         141.0473  144.0823  163.7244 N.ar    1  UNL1       -0.2407
     13 C         138.4895  138.6990  166.1930 C.3     1  UNL1        0.2511
     14 O         138.8549  137.5013  165.3673 O.3     1  UNL1       -0.4666
     15 F         141.4244  138.2317  159.9947 F       1  UNL1       -0.2017
     16 C         140.7820  138.0491  161.3379 C.ar    1  UNL1        0.1698
     17 C         139.2904  138.1309  161.4732 C.ar    1  UNL1        0.0352
     18 C         138.6481  137.9483  162.8163 C.ar    1  UNL1        0.0417
     19 C         139.4973  137.6839  164.0241 C.ar    1  UNL1        0.1688
     20 C         140.9889  137.6020  163.8888 C.ar    1  UNL1        0.2033
     21 F         141.8382  137.3375  165.0967 F       1  UNL1       -0.1985
     22 C         141.6313  137.7846  162.5457 C.ar    1  UNL1        0.1976
     23 F         143.1230  137.7028  162.4104 F       1  UNL1       -0.1993
     24 O         142.5029  141.2841  168.2449 O.3     1  UNL1       -0.4571
     25 C         142.4740  142.3540  169.2959 C.3     1  UNL1        0.2444
     26 C         141.2254  142.5886  170.0934 C.3     1  UNL1        0.2277
     27 F         140.8433  143.7046  169.1669 F       1  UNL1       -0.2309
     28 C         141.6076  141.4725  171.0199 C.3     1  UNL1        0.1809
     29 O         140.3590  141.7071  171.8173 O.3     1  UNL1       -0.3477
     30 C         139.9768  142.8231  170.8908 C.3     1  UNL1        0.1809
@<TRIPOS>BOND
     1    15    16    1
     2    16    17   ar
     3    17    18   ar
     4    18    19   ar
     5    19    14    1
     6    14    13    1
     7    13     1    1
     8     1     2   ar
     9     2     3   ar
    10     3    24    1
    11    24    25    1
    12    25    26    1
    13    26    27    1
    14    26    28    1
    15    28    29    1
    16    29    30    1
    17     3     4   ar
    18     4     5   ar
    19     5     7    1
    20     7     8   ar
    21     8     9   ar
    22     9    10   ar
    23    10    11   ar
    24    11    12   ar
    25     5     6   ar
    26    19    20   ar
    27    20    21    1
    28    20    22   ar
    29    22    23    1
    30    22    16   ar
    31     6     1   ar
    32    30    26    1
    33    12     7   ar
@<TRIPOS>MOLECULE
*****
 30 33 0 0 0
SMALL
GASTEIGER

@<TRIPOS>ATOM
      1 C         141.8258  138.6822  164.6142 C.ar    1  UNL1        0.1090
      2 C         142.4980  138.5070  165.9437 C.ar    1  UNL1        0.0761
      3 C         142.2404  139.4876  167.0493 C.ar    1  UNL1        0.2276
      4 N         141.3107  140.6433  166.8253 N.ar    1  UNL1       -0.1910
      5 C         140.6386  140.8184  165.4958 C.ar    1  UNL1        0.1829
      6 N         140.8961  139.8379  164.3903 N.ar    1  UNL1       -0.2257
      7 C         139.7090  141.9740  165.2719 C.ar    1  UNL1        0.1171
      8 C         138.3939  141.7563  164.5840 C.ar    1  UNL1        0.0223
      9 C         137.4642  142.9121  164.3601 C.ar    1  UNL1        0.0032
     10 C         137.8497  144.2854  164.8241 C.ar    1  UNL1        0.0207
     11 C         139.1647  144.5031  165.5120 C.ar    1  UNL1        0.0989
     12 N         140.0944  143.3475  165.7359 N.ar    1  UNL1       -0.2407
     13 C         142.0833  137.7017  163.5086 C.3     1  UNL1        0.2511
     14 O         143.1360  137.9906  162.4800 O.3     1  UNL1       -0.4666
     15 F         144.9903  143.6265  161.5861 F       1  UNL1       -0.2017
     16 C         144.5267  142.2175  161.8096 C.ar    1  UNL1        0.1698
     17 C         143.4349  141.6430  160.9566 C.ar    1  UNL1        0.0352
     18 C         142.9713  140.2340  161.1800 C.ar    1  UNL1        0.0417
     19 C         143.5996  139.3996  162.2565 C.ar    1  UNL1        0.1688
     20 C         144.6915  139.9741  163.1096 C.ar    1  UNL1        0.2033
     21 F         145.3198  139.1396  164.1861 F       1  UNL1       -0.1985
     22 C         145.1550  141.3831  162.8861 C.ar    1  UNL1        0.1976
     23 F         146.2470  141.9576  163.7392 F       1  UNL1       -0.1993
     24 O         142.9126  139.3124  168.3787 O.3     1  UNL1       -0.4571
     25 C         142.1073  139.3883  169.6420 C.3     1  UNL1        0.2444
     26 C         142.0229  140.6791  170.4013 C.3     1  UNL1        0.2277
     27 F         143.3801  141.0665  169.8935 F       1  UNL1       -0.2309
     28 C         140.6658  140.2917  170.9092 C.3     1  UNL1        0.1809
     29 O         140.5814  141.5825  171.6685 O.3     1  UNL1       -0.3477
     30 C         141.9386  141.9699  171.1606 C.3     1  UNL1        0.1809
@<TRIPOS>BOND
     1    15    16    1
     2    16    17   ar
     3    17    18   ar
     4    18    19   ar
     5    19    14    1
     6    14    13    1
     7    13     1    1
     8     1     2   ar
     9     2     3   ar
    10     3    24    1
    11    24    25    1
    12    25    26    1
    13    26    27    1
    14    26    28    1
    15    28    29    1
    16    29    30    1
    17     3     4   ar
    18     4     5   ar
    19     5     7    1
    20     7     8   ar
    21     8     9   ar
    22     9    10   ar
    23    10    11   ar
    24    11    12   ar
    25     5     6   ar
    26    19    20   ar
    27    20    21    1
    28    20    22   ar
    29    22    23    1
    30    22    16   ar
    31     6     1   ar
    32    30    26    1
    33    12     7   ar
@<TRIPOS>MOLECULE
*****
 30 33 0 0 0
SMALL
GASTEIGER

@<TRIPOS>ATOM
      1 C         139.2477  139.7322  163.8657 C.ar    1  UNL1        0.1090
      2 C         140.5414  139.0881  163.4637 C.ar    1  UNL1        0.0761
      3 C         141.6832  139.0289  164.4346 C.ar    1  UNL1        0.2276
      4 N         141.5314  139.6140  165.8075 N.ar    1  UNL1       -0.1910
      5 C         140.2378  140.2581  166.2094 C.ar    1  UNL1        0.1829
      6 N         139.0959  140.3172  165.2385 N.ar    1  UNL1       -0.2257
      7 C         140.0860  140.8430  167.5823 C.ar    1  UNL1        0.1171
      8 C         140.5198  142.2540  167.8484 C.ar    1  UNL1        0.0223
      9 C         140.3680  142.8390  169.2214 C.ar    1  UNL1        0.0032
     10 C         139.7825  142.0130  170.3280 C.ar    1  UNL1        0.0207
     11 C         139.3487  140.6020  170.0618 C.ar    1  UNL1        0.0989
     12 N         139.5004  140.0170  168.6890 N.ar    1  UNL1       -0.2407
     13 C         138.1058  139.7913  162.8948 C.3     1  UNL1        0.2511
     14 O         137.3031  141.0509  162.7569 O.3     1  UNL1       -0.4666
     15 F         140.0867  146.3402  162.2326 F       1  UNL1       -0.2017
     16 C         139.3908  145.0179  162.3636 C.ar    1  UNL1        0.1698
     17 C         138.6035  144.7041  163.6012 C.ar    1  UNL1        0.0352
     18 C         137.9076  143.3818  163.7323 C.ar    1  UNL1        0.0417
     19 C         137.9990  142.3732  162.6258 C.ar    1  UNL1        0.1688
     20 C         138.7863  142.6870  161.3882 C.ar    1  UNL1        0.2033
     21 F         138.8778  141.6784  160.2816 F       1  UNL1       -0.1985
     22 C         139.4822  144.0093  161.2571 C.ar    1  UNL1        0.1976
     23 F         140.2696  144.3230  160.0195 F       1  UNL1       -0.1993
     24 O         142.9769  138.3848  164.0326 O.3     1  UNL1       -0.4571
     25 C         143.8533  139.0390  163.0060 C.3     1  UNL1        0.2444
     26 C         144.7841  140.1441  163.4089 C.3     1  UNL1        0.2277
     27 F         144.9308  139.5251  164.7673 F       1  UNL1       -0.2309
     28 C         144.6374  140.7630  162.0505 C.3     1  UNL1        0.1809
     29 O         145.5683  141.8680  162.4534 O.3     1  UNL1       -0.3477
     30 C         145.7150  141.2491  163.8119 C.3     1  UNL1        0.1809
@<TRIPOS>BOND
     1    15    16    1
     2    16    17   ar
     3    17    18   ar
     4    18    19   ar
     5    19    14    1
     6    14    13    1
     7    13     1    1
     8     1     2   ar
     9     2     3   ar
    10     3    24    1
    11    24    25    1
    12    25    26    1
    13    26    27    1
    14    26    28    1
    15    28    29    1
    16    29    30    1
    17     3     4   ar
    18     4     5   ar
    19     5     7    1
    20     7     8   ar
    21     8     9   ar
    22     9    10   ar
    23    10    11   ar
    24    11    12   ar
    25     5     6   ar
    26    19    20   ar
    27    20    21    1
    28    20    22   ar
    29    22    23    1
    30    22    16   ar
    31     6     1   ar
    32    30    26    1
    33    12     7   ar
@<TRIPOS>MOLECULE
*****
 30 33 0 0 0
SMALL
GASTEIGER

@<TRIPOS>ATOM
      1 C         138.6996  143.2346  164.6472 C.ar    1  UNL1        0.1090
      2 C         138.1652  141.8638  164.3548 C.ar    1  UNL1        0.0761
      3 C         138.5672  140.7028  165.2154 C.ar    1  UNL1        0.2276
      4 N         139.5036  140.9127  166.3684 N.ar    1  UNL1       -0.1910
      5 C         140.0379  142.2834  166.6607 C.ar    1  UNL1        0.1829
      6 N         139.6360  143.4444  165.8001 N.ar    1  UNL1       -0.2257
      7 C         140.9742  142.4932  167.8136 C.ar    1  UNL1        0.1171
      8 C         140.5065  143.2260  169.0360 C.ar    1  UNL1        0.0223
      9 C         141.4429  143.4358  170.1889 C.ar    1  UNL1        0.0032
     10 C         142.8470  142.9127  170.1195 C.ar    1  UNL1        0.0207
     11 C         143.3147  142.1798  168.8972 C.ar    1  UNL1        0.0989
     12 N         142.3784  141.9700  167.7443 N.ar    1  UNL1       -0.2407
     13 C         138.2977  144.3956  163.7866 C.3     1  UNL1        0.2511
     14 O         139.1913  144.8456  162.6691 O.3     1  UNL1       -0.4666
     15 F         145.0079  143.3741  162.7008 F       1  UNL1       -0.2017
     16 C         143.5538  143.7420  162.6929 C.ar    1  UNL1        0.1698
     17 C         143.0867  144.9694  163.4175 C.ar    1  UNL1        0.0352
     18 C         141.6325  145.3373  163.4096 C.ar    1  UNL1        0.0417
     19 C         140.6454  144.4777  162.6770 C.ar    1  UNL1        0.1688
     20 C         141.1125  143.2502  161.9524 C.ar    1  UNL1        0.2033
     21 F         140.1254  142.3906  161.2198 F       1  UNL1       -0.1985
     22 C         142.5667  142.8824  161.9603 C.ar    1  UNL1        0.1976
     23 F         143.0337  141.6548  161.2357 F       1  UNL1       -0.1993
     24 O         138.0328  139.3321  164.9231 O.3     1  UNL1       -0.4571
     25 C         138.9612  138.2477  164.4623 C.3     1  UNL1        0.2444
     26 C         139.3127  138.1288  163.0089 C.3     1  UNL1        0.2277
     27 F         137.9913  138.7350  162.6397 F       1  UNL1       -0.2309
     28 C         140.6341  137.5225  163.3781 C.3     1  UNL1        0.1809
     29 O         140.9855  137.4035  161.9248 O.3     1  UNL1       -0.3477
     30 C         139.6642  138.0098  161.5556 C.3     1  UNL1        0.1809
@<TRIPOS>BOND
     1    15    16    1
     2    16    17   ar
     3    17    18   ar
     4    18    19   ar
     5    19    14    1
     6    14    13    1
     7    13     1    1
     8     1     2   ar
     9     2     3   ar
    10     3    24    1
    11    24    25    1
    12    25    26    1
    13    26    27    1
    14    26    28    1
    15    28    29    1
    16    29    30    1
    17     3     4   ar
    18     4     5   ar
    19     5     7    1
    20     7     8   ar
    21     8     9   ar
    22     9    10   ar
    23    10    11   ar
    24    11    12   ar
    25     5     6   ar
    26    19    20   ar
    27    20    21    1
    28    20    22   ar
    29    22    23    1
    30    22    16   ar
    31     6     1   ar
    32    30    26    1
    33    12     7   ar
@<TRIPOS>MOLECULE
*****
 30 33 0 0 0
SMALL
GASTEIGER

@<TRIPOS>ATOM
      1 C         141.4627  138.6230  164.8432 C.ar    1  UNL1        0.1090
      2 C         142.4620  139.1812  163.8737 C.ar    1  UNL1        0.0761
      3 C         143.3772  140.2920  164.2963 C.ar    1  UNL1        0.2276
      4 N         143.2930  140.8447  165.6883 N.ar    1  UNL1       -0.1910
      5 C         142.2936  140.2864  166.6577 C.ar    1  UNL1        0.1829
      6 N         141.3785  139.1756  166.2351 N.ar    1  UNL1       -0.2257
      7 C         142.2094  140.8391  168.0496 C.ar    1  UNL1        0.1171
      8 C         143.0178  142.0446  168.4281 C.ar    1  UNL1        0.0223
      9 C         142.9336  142.5972  169.8201 C.ar    1  UNL1        0.0032
     10 C         142.0410  141.9443  170.8335 C.ar    1  UNL1        0.0207
     11 C         141.2326  140.7388  170.4550 C.ar    1  UNL1        0.0989
     12 N         141.3168  140.1862  169.0631 N.ar    1  UNL1       -0.2407
     13 C         140.5475  137.5122  164.4206 C.3     1  UNL1        0.2511
     14 O         139.1044  137.7992  164.1289 O.3     1  UNL1       -0.4666
     15 F         137.5092  143.0967  161.8069 F       1  UNL1       -0.2017
     16 C         137.9080  141.7723  162.3874 C.ar    1  UNL1        0.1698
     17 C         138.4049  140.6787  161.4891 C.ar    1  UNL1        0.0352
     18 C         138.8037  139.3544  162.0696 C.ar    1  UNL1        0.0417
     19 C         138.7056  139.1236  163.5484 C.ar    1  UNL1        0.1688
     20 C         138.2087  140.2172  164.4468 C.ar    1  UNL1        0.2033
     21 F         138.1106  139.9865  165.9257 F       1  UNL1       -0.1985
     22 C         137.8099  141.5416  163.8663 C.ar    1  UNL1        0.1976
     23 F         137.3130  142.6352  164.7647 F       1  UNL1       -0.1993
     24 O         144.3765  140.8502  163.3270 O.3     1  UNL1       -0.4571
     25 C         145.1361  142.0980  163.6680 C.3     1  UNL1        0.2444
     26 C         144.4674  143.4363  163.5594 C.3     1  UNL1        0.2277
     27 F         144.6881  143.6655  165.0252 F       1  UNL1       -0.2309
     28 C         144.2467  143.2072  162.0936 C.3     1  UNL1        0.1809
     29 O         143.5781  144.5454  161.9850 O.3     1  UNL1       -0.3477
     30 C         143.7987  144.7746  163.4508 C.3     1  UNL1        0.1809
@<TRIPOS>BOND
     1    15    16    1
     2    16    17   ar
     3    17    18   ar
     4    18    19   ar
     5    19    14    1
     6    14    13    1
     7    13     1    1
     8     1     2   ar
     9     2     3   ar
    10     3    24    1
    11    24    25    1
    12    25    26    1
    13    26    27    1
    14    26    28    1
    15    28    29    1
    16    29    30    1
    17     3     4   ar
    18     4     5   ar
    19     5     7    1
    20     7     8   ar
    21     8     9   ar
    22     9    10   ar
    23    10    11   ar
    24    11    12   ar
    25     5     6   ar
    26    19    20   ar
    27    20    21    1
    28    20    22   ar
    29    22    23    1
    30    22    16   ar
    31     6     1   ar
    32    30    26    1
    33    12     7   ar
@<TRIPOS>MOLECULE
*****
 30 33 0 0 0
SMALL
GASTEIGER

@<TRIPOS>ATOM
      1 C         143.8084  142.4680  163.5733 C.ar    1  UNL1        0.1090
      2 C         143.7635  141.0266  163.1603 C.ar    1  UNL1        0.0761
      3 C         143.2519  139.9886  164.1146 C.ar    1  UNL1        0.2276
      4 N         142.7850  140.3920  165.4819 N.ar    1  UNL1       -0.1910
      5 C         142.8298  141.8333  165.8948 C.ar    1  UNL1        0.1829
      6 N         143.3415  142.8713  164.9405 N.ar    1  UNL1       -0.2257
      7 C         142.3629  142.2366  167.2620 C.ar    1  UNL1        0.1171
      8 C         140.9310  142.6262  167.4810 C.ar    1  UNL1        0.0223
      9 C         140.4642  143.0295  168.8483 C.ar    1  UNL1        0.0032
     10 C         141.4292  143.0432  169.9966 C.ar    1  UNL1        0.0207
     11 C         142.8611  142.6536  169.7776 C.ar    1  UNL1        0.0989
     12 N         143.3280  142.2503  168.4104 N.ar    1  UNL1       -0.2407
     13 C         144.3200  143.5061  162.6190 C.3     1  UNL1        0.2511
     14 O         143.3550  144.3658  161.8578 O.3     1  UNL1       -0.4666
     15 F         137.4477  143.6483  162.6252 F       1  UNL1       -0.2017
     16 C         138.9245  143.8277  162.4334 C.ar    1  UNL1        0.1698
     17 C         139.6199  143.1509  161.2896 C.ar    1  UNL1        0.0352
     18 C         141.0967  143.3303  161.0977 C.ar    1  UNL1        0.0417
     19 C         141.8782  144.1864  162.0497 C.ar    1  UNL1        0.1688
     20 C         141.1828  144.8632  163.1935 C.ar    1  UNL1        0.2033
     21 F         141.9642  145.7195  164.1455 F       1  UNL1       -0.1985
     22 C         139.7059  144.6839  163.3853 C.ar    1  UNL1        0.1976
     23 F         139.0106  145.3607  164.5292 F       1  UNL1       -0.1993
     24 O         143.2070  138.5473  163.7017 O.3     1  UNL1       -0.4571
     25 C         141.9530  137.9754  163.1096 C.3     1  UNL1        0.2444
     26 C         140.7331  137.7985  163.9641 C.3     1  UNL1        0.2277
     27 F         141.5144  136.9228  164.8983 F       1  UNL1       -0.2309
     28 C         139.9518  138.6741  163.0300 C.3     1  UNL1        0.1809
     29 O         138.7318  138.4972  163.8846 O.3     1  UNL1       -0.3477
     30 C         139.5131  137.6215  164.8187 C.3     1  UNL1        0.1809
@<TRIPOS>BOND
     1    15    16    1
     2    16    17   ar
     3    17    18   ar
     4    18    19   ar
     5    19    14    1
     6    14    13    1
     7    13     1    1
     8     1     2   ar
     9     2     3   ar
    10     3    24    1
    11    24    25    1
    12    25    26    1
    13    26    27    1
    14    26    28    1
    15    28    29    1
    16    29    30    1
    17     3     4   ar
    18     4     5   ar
    19     5     7    1
    20     7     8   ar
    21     8     9   ar
    22     9    10   ar
    23    10    11   ar
    24    11    12   ar
    25     5     6   ar
    26    19    20   ar
    27    20    21    1
    28    20    22   ar
    29    22    23    1
    30    22    16   ar
    31     6     1   ar
    32    30    26    1
    33    12     7   ar
