@<TRIPOS>MOLECULE
*****
 23 25 0 0 0
SMALL
GASTEIGER

@<TRIPOS>ATOM
      1 N         140.7169  142.0945  167.3537 N.3     1  UNL1       -0.2700
      2 C         140.6993  142.9602  166.1289 C.3     1  UNL1        0.0628
      3 C         141.8921  142.9982  165.2201 C.3     1  UNL1        0.0481
      4 C         141.8745  143.8639  163.9953 C.3     1  UNL1        0.1435
      5 O         140.6641  144.6915  163.6791 O.3     1  UNL1       -0.3537
      6 C         139.4713  144.6535  164.5879 C.3     1  UNL1        0.1435
      7 C         139.4889  143.7878  165.8127 C.3     1  UNL1        0.0481
      8 C         141.5032  142.5168  168.5593 C.3     1  UNL1        0.0748
      9 C         142.9336  142.1678  168.8456 C.3     1  UNL1        0.0344
     10 C         143.3116  142.7975  170.1535 C.3     1  UNL1        0.0700
     11 N         142.1146  143.5357  170.6756 N.3     1  UNL1       -0.2963
     12 C         140.9970  143.3622  169.6904 C.3     1  UNL1        0.0847
     13 H         142.3359  144.5262  170.7771 H       1  UNL1        0.1233
     14 C         139.9482  140.8066  167.3730 C.3     1  UNL1        0.1014
     15 F         141.2696  136.4651  163.4480 F       1  UNL1       -0.2017
     16 C         140.9393  137.5505  164.4293 C.ar    1  UNL1        0.1696
     17 C         142.0338  138.2104  165.2144 C.ar    1  UNL1        0.0318
     18 C         141.7035  139.2957  166.1956 C.ar    1  UNL1        0.0018
     19 C         140.2785  139.7212  166.3917 C.ar    1  UNL1        0.0237
     20 C         139.1840  139.0614  165.6066 C.ar    1  UNL1        0.1669
     21 F         137.7590  139.4868  165.8027 F       1  UNL1       -0.2020
     22 C         139.5143  137.9760  164.6254 C.ar    1  UNL1        0.1943
     23 F         138.4197  137.3161  163.8403 F       1  UNL1       -0.1994
@<TRIPOS>BOND
     1    15    16    1
     2    16    17   ar
     3    17    18   ar
     4    18    19   ar
     5    19    14    1
     6    14     1    1
     7     1     2    1
     8     2     3    1
     9     3     4    1
    10     4     5    1
    11     5     6    1
    12     6     7    1
    13     8     1    1
    14     8     9    1
    15     9    10    1
    16    10    11    1
    17    11    12    1
    18    19    20   ar
    19    20    21    1
    20    20    22   ar
    21    22    23    1
    22    22    16   ar
    23     7     2    1
    24    12     8    1
    25    11    13    1
@<TRIPOS>MOLECULE
*****
 23 25 0 0 0
SMALL
GASTEIGER

@<TRIPOS>ATOM
      1 N         141.3612  141.4120  166.7818 N.3     1  UNL1       -0.2700
      2 C         141.5970  142.1555  168.0630 C.3     1  UNL1        0.0628
      3 C         142.9245  142.0559  168.7545 C.3     1  UNL1        0.0481
      4 C         143.1603  142.7994  170.0358 C.3     1  UNL1        0.1435
      5 O         142.0687  143.6425  170.6255 O.3     1  UNL1       -0.3537
      6 C         140.7414  143.7420  169.9340 C.3     1  UNL1        0.1435
      7 C         140.5055  142.9986  168.6528 C.3     1  UNL1        0.0481
      8 C         142.3835  140.4341  166.2831 C.3     1  UNL1        0.0748
      9 C         142.6127  139.0502  166.8145 C.3     1  UNL1        0.0344
     10 C         143.7269  138.4293  166.0252 C.3     1  UNL1        0.0700
     11 N         144.1863  139.4293  165.0059 N.3     1  UNL1       -0.2963
     12 C         143.3560  140.6684  165.1653 C.3     1  UNL1        0.0847
     13 H         144.0635  139.0487  164.0676 H       1  UNL1        0.1233
     14 C         140.1032  141.6464  165.9993 C.3     1  UNL1        0.1014
     15 F         139.7221  146.3256  162.2629 F       1  UNL1       -0.2017
     16 C         139.8173  145.1558  163.1970 C.ar    1  UNL1        0.1696
     17 C         141.1353  144.7958  163.8161 C.ar    1  UNL1        0.0318
     18 C         141.2306  143.6260  164.7502 C.ar    1  UNL1        0.0018
     19 C         140.0079  142.8162  165.0652 C.ar    1  UNL1        0.0237
     20 C         138.6899  143.1762  164.4461 C.ar    1  UNL1        0.1669
     21 F         137.4672  142.3665  164.7611 F       1  UNL1       -0.2020
     22 C         138.5947  144.3460  163.5120 C.ar    1  UNL1        0.1943
     23 F         137.2766  144.7060  162.8930 F       1  UNL1       -0.1994
@<TRIPOS>BOND
     1    15    16    1
     2    16    17   ar
     3    17    18   ar
     4    18    19   ar
     5    19    14    1
     6    14     1    1
     7     1     2    1
     8     2     3    1
     9     3     4    1
    10     4     5    1
    11     5     6    1
    12     6     7    1
    13     8     1    1
    14     8     9    1
    15     9    10    1
    16    10    11    1
    17    11    12    1
    18    19    20   ar
    19    20    21    1
    20    20    22   ar
    21    22    23    1
    22    22    16   ar
    23     7     2    1
    24    12     8    1
    25    11    13    1
@<TRIPOS>MOLECULE
*****
 23 25 0 0 0
SMALL
GASTEIGER

@<TRIPOS>ATOM
      1 N         141.5427  140.8052  166.5798 N.3     1  UNL1       -0.2700
      2 C         140.5030  139.7697  166.2687 C.3     1  UNL1        0.0628
      3 C         139.1776  139.8033  166.9703 C.3     1  UNL1        0.0481
      4 C         138.1379  138.7678  166.6591 C.3     1  UNL1        0.1435
      5 O         138.4236  137.6988  165.6463 O.3     1  UNL1       -0.3537
      6 C         139.7490  137.6653  164.9448 C.3     1  UNL1        0.1435
      7 C         140.7887  138.7007  165.2560 C.3     1  UNL1        0.0481
      8 C         142.2258  140.8044  167.9153 C.3     1  UNL1        0.0748
      9 C         142.8261  141.9968  168.5993 C.3     1  UNL1        0.0344
     10 C         143.3998  141.5404  169.9079 C.3     1  UNL1        0.0700
     11 N         143.1541  140.0659  170.0328 N.3     1  UNL1       -0.2963
     12 C         142.4285  139.6111  168.8013 C.3     1  UNL1        0.0847
     13 H         142.5856  139.8785  170.8586 H       1  UNL1        0.1233
     14 C         141.8993  141.8414  165.5556 C.3     1  UNL1        0.1014
     15 F         137.5714  144.9697  162.8201 F       1  UNL1       -0.2017
     16 C         138.6534  144.1876  163.5039 C.ar    1  UNL1        0.1696
     17 C         139.5792  143.3253  162.6982 C.ar    1  UNL1        0.0318
     18 C         140.6612  142.5432  163.3821 C.ar    1  UNL1        0.0018
     19 C         140.8173  142.6235  164.8717 C.ar    1  UNL1        0.0237
     20 C         139.8915  143.4858  165.6775 C.ar    1  UNL1        0.1669
     21 F         140.0477  143.5660  167.1672 F       1  UNL1       -0.2020
     22 C         138.8096  144.2678  164.9936 C.ar    1  UNL1        0.1943
     23 F         137.8838  145.1302  165.7995 F       1  UNL1       -0.1994
@<TRIPOS>BOND
     1    15    16    1
     2    16    17   ar
     3    17    18   ar
     4    18    19   ar
     5    19    14    1
     6    14     1    1
     7     1     2    1
     8     2     3    1
     9     3     4    1
    10     4     5    1
    11     5     6    1
    12     6     7    1
    13     8     1    1
    14     8     9    1
    15     9    10    1
    16    10    11    1
    17    11    12    1
    18    19    20   ar
    19    20    21    1
    20    20    22   ar
    21    22    23    1
    22    22    16   ar
    23     7     2    1
    24    12     8    1
    25    11    13    1
@<TRIPOS>MOLECULE
*****
 23 25 0 0 0
SMALL
GASTEIGER

@<TRIPOS>ATOM
      1 N         142.4000  139.8356  166.1576 N.3     1  UNL1       -0.2700
      2 C         143.3885  140.6526  165.3795 C.3     1  UNL1        0.0628
      3 C         144.4586  139.9719  164.5784 C.3     1  UNL1        0.0481
      4 C         145.4471  140.7888  163.8003 C.3     1  UNL1        0.1435
      5 O         145.3656  142.2865  163.8233 O.3     1  UNL1       -0.3537
      6 C         144.2955  142.9671  164.6244 C.3     1  UNL1        0.1435
      7 C         143.3070  142.1502  165.4025 C.3     1  UNL1        0.0481
      8 C         141.2990  139.1099  165.4426 C.3     1  UNL1        0.0748
      9 C         139.8953  139.6036  165.2532 C.3     1  UNL1        0.0344
     10 C         139.1372  138.5618  164.4851 C.3     1  UNL1        0.0700
     11 N         140.0724  137.4242  164.1998 N.3     1  UNL1       -0.2963
     12 C         141.4084  137.7629  164.7916 C.3     1  UNL1        0.0847
     13 H         140.1629  137.2949  163.1921 H       1  UNL1        0.1233
     14 C         142.5124  139.7444  167.6506 C.3     1  UNL1        0.1014
     15 F         139.1377  143.2761  171.1346 F       1  UNL1       -0.2017
     16 C         139.9814  142.3932  170.2636 C.ar    1  UNL1        0.1696
     17 C         139.4475  141.0726  169.7934 C.ar    1  UNL1        0.0318
     18 C         140.2912  140.1897  168.9224 C.ar    1  UNL1        0.0018
     19 C         141.6688  140.6274  168.5216 C.ar    1  UNL1        0.0237
     20 C         142.2026  141.9479  168.9917 C.ar    1  UNL1        0.1669
     21 F         143.5803  142.3856  168.5909 F       1  UNL1       -0.2020
     22 C         141.3590  142.8308  169.8628 C.ar    1  UNL1        0.1943
     23 F         141.8929  144.1514  170.3329 F       1  UNL1       -0.1994
@<TRIPOS>BOND
     1    15    16    1
     2    16    17   ar
     3    17    18   ar
     4    18    19   ar
     5    19    14    1
     6    14     1    1
     7     1     2    1
     8     2     3    1
     9     3     4    1
    10     4     5    1
    11     5     6    1
    12     6     7    1
    13     8     1    1
    14     8     9    1
    15     9    10    1
    16    10    11    1
    17    11    12    1
    18    19    20   ar
    19    20    21    1
    20    20    22   ar
    21    22    23    1
    22    22    16   ar
    23     7     2    1
    24    12     8    1
    25    11    13    1
@<TRIPOS>MOLECULE
*****
 23 25 0 0 0
SMALL
GASTEIGER

@<TRIPOS>ATOM
      1 N         142.0788  141.7016  167.1440 N.3     1  UNL1       -0.2700
      2 C         142.4452  142.4389  165.8902 C.3     1  UNL1        0.0628
      3 C         141.3689  142.9439  164.9754 C.3     1  UNL1        0.0481
      4 C         141.7353  143.6812  163.7215 C.3     1  UNL1        0.1435
      5 O         143.1780  143.9135  163.3825 O.3     1  UNL1       -0.3537
      6 C         144.2541  143.4086  164.2973 C.3     1  UNL1        0.1435
      7 C         143.8877  142.6712  165.5511 C.3     1  UNL1        0.0481
      8 C         141.7231  142.4643  168.3858 C.3     1  UNL1        0.0748
      9 C         140.4088  143.1312  168.6648 C.3     1  UNL1        0.0344
     10 C         140.4927  143.7730  170.0180 C.3     1  UNL1        0.0700
     11 N         141.8589  143.5027  170.5753 N.3     1  UNL1       -0.2963
     12 C         142.6193  142.6939  169.5665 C.3     1  UNL1        0.0847
     13 H         141.7797  142.9813  171.4484 H       1  UNL1        0.1233
     14 C         142.0680  140.2017  167.1562 C.3     1  UNL1        0.1014
     15 F         138.3688  137.1985  163.5097 F       1  UNL1       -0.2017
     16 C         139.2936  137.9493  164.4213 C.ar    1  UNL1        0.1696
     17 C         138.7515  139.0134  165.3289 C.ar    1  UNL1        0.0318
     18 C         139.6763  139.7643  166.2405 C.ar    1  UNL1        0.0018
     19 C         141.1432  139.4509  166.2445 C.ar    1  UNL1        0.0237
     20 C         141.6853  138.3868  165.3370 C.ar    1  UNL1        0.1669
     21 F         143.1522  138.0734  165.3410 F       1  UNL1       -0.2020
     22 C         140.7605  137.6360  164.4254 C.ar    1  UNL1        0.1943
     23 F         141.3026  136.5718  163.5178 F       1  UNL1       -0.1994
@<TRIPOS>BOND
     1    15    16    1
     2    16    17   ar
     3    17    18   ar
     4    18    19   ar
     5    19    14    1
     6    14     1    1
     7     1     2    1
     8     2     3    1
     9     3     4    1
    10     4     5    1
    11     5     6    1
    12     6     7    1
    13     8     1    1
    14     8     9    1
    15     9    10    1
    16    10    11    1
    17    11    12    1
    18    19    20   ar
    19    20    21    1
    20    20    22   ar
    21    22    23    1
    22    22    16   ar
    23     7     2    1
    24    12     8    1
    25    11    13    1
@<TRIPOS>MOLECULE
*****
 23 25 0 0 0
SMALL
GASTEIGER

@<TRIPOS>ATOM
      1 N         140.4582  140.1984  167.2489 N.3     1  UNL1       -0.2700
      2 C         140.5519  140.9846  168.5229 C.3     1  UNL1        0.0628
      3 C         140.4347  142.4797  168.4919 C.3     1  UNL1        0.0481
      4 C         140.5284  143.2659  169.7660 C.3     1  UNL1        0.1435
      5 O         140.7392  142.5569  171.0710 O.3     1  UNL1       -0.3537
      6 C         140.8563  141.0619  171.1019 C.3     1  UNL1        0.1435
      7 C         140.7626  140.2757  169.8279 C.3     1  UNL1        0.0481
      8 C         141.6611  140.0589  166.3636 C.3     1  UNL1        0.0748
      9 C         142.5473  138.8528  166.2639 C.3     1  UNL1        0.0344
     10 C         143.6228  139.1495  165.2612 C.3     1  UNL1        0.0700
     11 N         143.4012  140.5390  164.7412 N.3     1  UNL1       -0.2963
     12 C         142.1888  141.1010  165.4225 C.3     1  UNL1        0.0847
     13 H         143.2499  140.5112  163.7328 H       1  UNL1        0.1233
     14 C         139.1618  139.5518  166.8602 C.3     1  UNL1        0.1014
     15 F         137.9254  138.5489  161.0752 F       1  UNL1       -0.2017
     16 C         138.2345  138.7996  162.5215 C.ar    1  UNL1        0.1696
     17 C         138.7889  137.6957  163.3722 C.ar    1  UNL1        0.0318
     18 C         139.0980  137.9464  164.8185 C.ar    1  UNL1        0.0018
     19 C         138.8527  139.3011  165.4140 C.ar    1  UNL1        0.0237
     20 C         138.2983  140.4050  164.5632 C.ar    1  UNL1        0.1669
     21 F         138.0529  141.7598  165.1586 F       1  UNL1       -0.2020
     22 C         137.9892  140.1543  163.1169 C.ar    1  UNL1        0.1943
     23 F         137.4348  141.2584  162.2662 F       1  UNL1       -0.1994
@<TRIPOS>BOND
     1    15    16    1
     2    16    17   ar
     3    17    18   ar
     4    18    19   ar
     5    19    14    1
     6    14     1    1
     7     1     2    1
     8     2     3    1
     9     3     4    1
    10     4     5    1
    11     5     6    1
    12     6     7    1
    13     8     1    1
    14     8     9    1
    15     9    10    1
    16    10    11    1
    17    11    12    1
    18    19    20   ar
    19    20    21    1
    20    20    22   ar
    21    22    23    1
    22    22    16   ar
    23     7     2    1
    24    12     8    1
    25    11    13    1
@<TRIPOS>MOLECULE
*****
 23 25 0 0 0
SMALL
GASTEIGER

@<TRIPOS>ATOM
      1 N         142.5260  139.8119  165.8738 N.3     1  UNL1       -0.2700
      2 C         141.3794  139.2228  165.1069 C.3     1  UNL1        0.0628
      3 C         141.5123  137.8644  164.4847 C.3     1  UNL1        0.0481
      4 C         140.3657  137.2752  163.7179 C.3     1  UNL1        0.1435
      5 O         139.0860  138.0445  163.5733 O.3     1  UNL1       -0.3537
      6 C         138.9531  139.4028  164.1955 C.3     1  UNL1        0.1435
      7 C         140.0998  139.9920  164.9623 C.3     1  UNL1        0.0481
      8 C         143.6002  140.5703  165.1519 C.3     1  UNL1        0.0748
      9 C         143.7259  142.0631  165.0751 C.3     1  UNL1        0.0344
     10 C         144.9406  142.3844  164.2559 C.3     1  UNL1        0.0700
     11 N         145.5657  141.0902  163.8263 N.3     1  UNL1       -0.2963
     12 C         144.7373  139.9691  164.3801 C.3     1  UNL1        0.0847
     13 H         146.5175  141.0287  164.1879 H       1  UNL1        0.1233
     14 C         142.5986  139.6427  167.3624 C.3     1  UNL1        0.1014
     15 F         139.1339  142.9941  170.9351 F       1  UNL1       -0.2017
     16 C         140.0001  142.1563  170.0419 C.ar    1  UNL1        0.1696
     17 C         139.5075  140.8271  169.5516 C.ar    1  UNL1        0.0318
     18 C         140.3736  139.9892  168.6584 C.ar    1  UNL1        0.0018
     19 C         141.7324  140.4806  168.2556 C.ar    1  UNL1        0.0237
     20 C         142.2250  141.8097  168.7460 C.ar    1  UNL1        0.1669
     21 F         143.5839  142.3012  168.3432 F       1  UNL1       -0.2020
     22 C         141.3589  142.6476  169.6392 C.ar    1  UNL1        0.1943
     23 F         141.8515  143.9769  170.1296 F       1  UNL1       -0.1994
@<TRIPOS>BOND
     1    15    16    1
     2    16    17   ar
     3    17    18   ar
     4    18    19   ar
     5    19    14    1
     6    14     1    1
     7     1     2    1
     8     2     3    1
     9     3     4    1
    10     4     5    1
    11     5     6    1
    12     6     7    1
    13     8     1    1
    14     8     9    1
    15     9    10    1
    16    10    11    1
    17    11    12    1
    18    19    20   ar
    19    20    21    1
    20    20    22   ar
    21    22    23    1
    22    22    16   ar
    23     7     2    1
    24    12     8    1
    25    11    13    1
@<TRIPOS>MOLECULE
*****
 23 25 0 0 0
SMALL
GASTEIGER

@<TRIPOS>ATOM
      1 N         141.0455  140.2511  167.6036 N.3     1  UNL1       -0.2700
      2 C         140.9162  140.8701  168.9638 C.3     1  UNL1        0.0628
      3 C         140.0689  142.0933  169.1536 C.3     1  UNL1        0.0481
      4 C         139.9396  142.7124  170.5138 C.3     1  UNL1        0.1435
      5 O         140.6576  142.1083  171.6841 O.3     1  UNL1       -0.3537
      6 C         141.5049  140.8852  171.4942 C.3     1  UNL1        0.1435
      7 C         141.6342  140.2661  170.1340 C.3     1  UNL1        0.0481
      8 C         139.9141  140.3506  166.6237 C.3     1  UNL1        0.0748
      9 C         139.7378  141.4194  165.5862 C.3     1  UNL1        0.0344
     10 C         138.4752  141.1282  164.8305 C.3     1  UNL1        0.0700
     11 N         137.8712  139.8793  165.4010 N.3     1  UNL1       -0.2963
     12 C         138.7605  139.3987  166.5093 C.3     1  UNL1        0.0847
     13 H         137.8044  139.1647  164.6762 H       1  UNL1        0.1233
     14 C         142.3060  139.5325  167.2234 C.3     1  UNL1        0.1014
     15 F         145.7425  141.6480  162.7832 F       1  UNL1       -0.2017
     16 C         144.8834  141.1191  163.8933 C.ar    1  UNL1        0.1696
     17 C         144.6137  139.6472  163.9967 C.ar    1  UNL1        0.0318
     18 C         143.7545  139.1184  165.1067 C.ar    1  UNL1        0.0018
     19 C         143.1652  140.0614  166.1133 C.ar    1  UNL1        0.0237
     20 C         143.4349  141.5333  166.0099 C.ar    1  UNL1        0.1669
     21 F         142.8455  142.4763  167.0166 F       1  UNL1       -0.2020
     22 C         144.2940  142.0621  164.8999 C.ar    1  UNL1        0.1943
     23 F         144.5638  143.5341  164.7965 F       1  UNL1       -0.1994
@<TRIPOS>BOND
     1    15    16    1
     2    16    17   ar
     3    17    18   ar
     4    18    19   ar
     5    19    14    1
     6    14     1    1
     7     1     2    1
     8     2     3    1
     9     3     4    1
    10     4     5    1
    11     5     6    1
    12     6     7    1
    13     8     1    1
    14     8     9    1
    15     9    10    1
    16    10    11    1
    17    11    12    1
    18    19    20   ar
    19    20    21    1
    20    20    22   ar
    21    22    23    1
    22    22    16   ar
    23     7     2    1
    24    12     8    1
    25    11    13    1
@<TRIPOS>MOLECULE
*****
 23 25 0 0 0
SMALL
GASTEIGER

@<TRIPOS>ATOM
      1 N         140.7613  140.3194  167.3261 N.3     1  UNL1       -0.2700
      2 C         140.8882  141.1652  168.5584 C.3     1  UNL1        0.0628
      3 C         141.4037  140.5628  169.8318 C.3     1  UNL1        0.0481
      4 C         141.5305  141.4086  171.0641 C.3     1  UNL1        0.1435
      5 O         141.1419  142.8568  171.0230 O.3     1  UNL1       -0.3537
      6 C         140.6265  143.4592  169.7497 C.3     1  UNL1        0.1435
      7 C         140.4996  142.6134  168.5174 C.3     1  UNL1        0.0481
      8 C         141.9569  140.0848  166.4511 C.3     1  UNL1        0.0748
      9 C         142.7219  141.1361  165.7030 C.3     1  UNL1        0.0344
     10 C         143.8352  140.4588  164.9602 C.3     1  UNL1        0.0700
     11 N         143.7582  138.9888  165.2491 N.3     1  UNL1       -0.2963
     12 C         142.5974  138.7578  166.1705 C.3     1  UNL1        0.0847
     13 H         144.6213  138.6780  165.6950 H       1  UNL1        0.1233
     14 C         139.4389  139.7083  166.9688 C.3     1  UNL1        0.1014
     15 F         137.3816  140.0844  161.3451 F       1  UNL1       -0.2017
     16 C         137.8959  139.9904  162.7511 C.ar    1  UNL1        0.1696
     17 C         137.8354  141.1870  163.6534 C.ar    1  UNL1        0.0318
     18 C         138.3497  141.0930  165.0593 C.ar    1  UNL1        0.0018
     19 C         138.9246  139.8023  165.5629 C.ar    1  UNL1        0.0237
     20 C         138.9851  138.6056  164.6605 C.ar    1  UNL1        0.1669
     21 F         139.5600  137.3149  165.1641 F       1  UNL1       -0.2020
     22 C         138.4708  138.6997  163.2546 C.ar    1  UNL1        0.1943
     23 F         138.5313  137.5030  162.3522 F       1  UNL1       -0.1994
@<TRIPOS>BOND
     1    15    16    1
     2    16    17   ar
     3    17    18   ar
     4    18    19   ar
     5    19    14    1
     6    14     1    1
     7     1     2    1
     8     2     3    1
     9     3     4    1
    10     4     5    1
    11     5     6    1
    12     6     7    1
    13     8     1    1
    14     8     9    1
    15     9    10    1
    16    10    11    1
    17    11    12    1
    18    19    20   ar
    19    20    21    1
    20    20    22   ar
    21    22    23    1
    22    22    16   ar
    23     7     2    1
    24    12     8    1
    25    11    13    1
